MODEL 1
REMARK VINA RESULT:    12.558      0.000      0.000
REMARK INTER + INTRA:          16.670
REMARK INTER:                  17.329
REMARK INTRA:                  -0.659
REMARK UNBOUND:                -0.659
REMARK SMILES Cc1ccsc1C(=CCCN1CCC[C@@H](C(=O)O)C1)c1sccc1C
REMARK SMILES IDX 10 1 9 2 8 3 7 4 6 5 2 6 3 7 5 8 4 9 1 10 20 11 24 12 21 13
REMARK SMILES IDX 23 14 22 15 25 16 11 17 12 18 19 19 13 20 15 21 14 22 16 23
REMARK SMILES IDX 17 24 18 25
REMARK H PARENT 18 26
ROOT
ATOM      1  C   UNL     1     135.538 131.598 128.596  1.00  0.00     0.088 C 
ENDROOT
BRANCH   1   2
ATOM      2  C   UNL     1     136.433 132.485 127.714  1.00  0.00     0.043 C 
BRANCH   2   3
ATOM      3  C   UNL     1     135.925 132.535 126.346  1.00  0.00    -0.015 C 
ATOM      4  C   UNL     1     136.546 132.298 125.209  1.00  0.00     0.005 C 
BRANCH   4   5
ATOM      5  C   UNL     1     137.970 131.928 125.183  1.00  0.00     0.038 A 
ATOM      6  C   UNL     1     139.079 132.495 124.677  1.00  0.00    -0.032 A 
ATOM      7  C   UNL     1     140.275 131.947 124.998  1.00  0.00     0.016 A 
ATOM      8  S   UNL     1     138.552 130.571 126.146  1.00  0.00    -0.144 S 
ATOM      9  C   UNL     1     140.307 130.873 125.794  1.00  0.00     0.066 A 
ATOM     10  C   UNL     1     139.017 133.658 123.691  1.00  0.00     0.046 C 
ENDBRANCH   4   5
BRANCH   4  11
ATOM     11  C   UNL     1     135.790 132.408 123.964  1.00  0.00     0.038 A 
ATOM     12  C   UNL     1     134.981 133.287 123.382  1.00  0.00    -0.032 A 
ATOM     13  S   UNL     1     136.097 131.174 122.675  1.00  0.00    -0.144 S 
ATOM     14  C   UNL     1     134.617 133.073 122.087  1.00  0.00     0.016 A 
ATOM     15  C   UNL     1     135.094 131.978 121.466  1.00  0.00     0.066 A 
ATOM     16  C   UNL     1     134.413 134.495 124.128  1.00  0.00     0.046 C 
ENDBRANCH   4  11
ENDBRANCH   2   3
ENDBRANCH   1   2
BRANCH   1  17
ATOM     17  N   UNL     1     135.247 132.185 129.849  1.00  0.00    -0.302 NA
ATOM     18  C   UNL     1     136.096 133.241 130.262  1.00  0.00     0.084 C 
ATOM     19  C   UNL     1     133.862 132.331 130.161  1.00  0.00     0.099 C 
ATOM     20  C   UNL     1     135.539 134.604 130.351  1.00  0.00     0.016 C 
ATOM     21  C   UNL     1     133.576 133.397 131.189  1.00  0.00     0.113 C 
ATOM     22  C   UNL     1     134.080 134.702 130.611  1.00  0.00     0.018 C 
BRANCH  21  23
ATOM     23  C   UNL     1     132.096 133.454 131.378  1.00  0.00     0.307 C 
ATOM     24  O   UNL     1     131.455 134.457 130.928  1.00  0.00    -0.252 OA
BRANCH  23  25
ATOM     25  O   UNL     1     131.379 132.461 132.026  1.00  0.00    -0.481 OA
ATOM     26  H   UNL     1     130.657 132.004 131.457  1.00  0.00     0.296 HD
ENDBRANCH  23  25
ENDBRANCH  21  23
ENDBRANCH   1  17
TORSDOF 7
ENDMDL
MODEL 2
REMARK VINA RESULT:    13.832      0.855      1.285
REMARK INTER + INTRA:          18.429
REMARK INTER:                  19.034
REMARK INTRA:                  -0.605
REMARK UNBOUND:                -0.659
REMARK SMILES Cc1ccsc1C(=CCCN1CCC[C@@H](C(=O)O)C1)c1sccc1C
REMARK SMILES IDX 10 1 9 2 8 3 7 4 6 5 2 6 3 7 5 8 4 9 1 10 20 11 24 12 21 13
REMARK SMILES IDX 23 14 22 15 25 16 11 17 12 18 19 19 13 20 15 21 14 22 16 23
REMARK SMILES IDX 17 24 18 25
REMARK H PARENT 18 26
ROOT
ATOM      1  C   UNL     1     135.619 131.796 128.601  1.00  0.00     0.088 C 
ENDROOT
BRANCH   1   2
ATOM      2  C   UNL     1     136.400 132.801 127.736  1.00  0.00     0.043 C 
BRANCH   2   3
ATOM      3  C   UNL     1     135.955 132.743 126.346  1.00  0.00    -0.015 C 
ATOM      4  C   UNL     1     136.621 132.396 125.264  1.00  0.00     0.005 C 
BRANCH   4   5
ATOM      5  C   UNL     1     138.035 131.998 125.336  1.00  0.00     0.038 A 
ATOM      6  C   UNL     1     138.686 130.928 125.823  1.00  0.00    -0.032 A 
ATOM      7  C   UNL     1     140.008 130.812 125.557  1.00  0.00     0.016 A 
ATOM      8  S   UNL     1     139.262 132.918 124.467  1.00  0.00    -0.144 S 
ATOM      9  C   UNL     1     140.610 131.758 124.828  1.00  0.00     0.066 A 
ATOM     10  C   UNL     1     138.005 129.911 126.736  1.00  0.00     0.046 C 
ENDBRANCH   4   5
BRANCH   4  11
ATOM     11  C   UNL     1     135.924 132.414 123.980  1.00  0.00     0.038 A 
ATOM     12  C   UNL     1     135.058 133.196 123.344  1.00  0.00    -0.032 A 
ATOM     13  S   UNL     1     136.429 131.209 122.726  1.00  0.00    -0.144 S 
ATOM     14  C   UNL     1     134.788 132.933 122.036  1.00  0.00     0.016 A 
ATOM     15  C   UNL     1     135.412 131.890 121.456  1.00  0.00     0.066 A 
ATOM     16  C   UNL     1     134.326 134.343 124.043  1.00  0.00     0.046 C 
ENDBRANCH   4  11
ENDBRANCH   2   3
ENDBRANCH   1   2
BRANCH   1  17
ATOM     17  N   UNL     1     135.272 132.316 129.869  1.00  0.00    -0.302 NA
ATOM     18  C   UNL     1     136.095 133.354 130.371  1.00  0.00     0.084 C 
ATOM     19  C   UNL     1     133.875 132.436 130.130  1.00  0.00     0.099 C 
ATOM     20  C   UNL     1     135.524 134.708 130.506  1.00  0.00     0.016 C 
ATOM     21  C   UNL     1     133.538 133.447 131.199  1.00  0.00     0.113 C 
ATOM     22  C   UNL     1     134.054 134.782 130.710  1.00  0.00     0.018 C 
BRANCH  21  23
ATOM     23  C   UNL     1     132.051 133.484 131.330  1.00  0.00     0.307 C 
ATOM     24  O   UNL     1     131.413 134.469 130.836  1.00  0.00    -0.252 OA
BRANCH  23  25
ATOM     25  O   UNL     1     131.324 132.493 131.968  1.00  0.00    -0.481 OA
ATOM     26  H   UNL     1     130.461 132.209 131.490  1.00  0.00     0.296 HD
ENDBRANCH  23  25
ENDBRANCH  21  23
ENDBRANCH   1  17
TORSDOF 7
ENDMDL
