MODEL 1
REMARK VINA RESULT:    -6.177      0.000      0.000
REMARK INTER + INTRA:          -6.573
REMARK INTER:                  -6.539
REMARK INTRA:                  -0.035
REMARK UNBOUND:                -0.035
REMARK SMILES O=C([O-])[C@@H]1CCCC[NH2+]1
REMARK SMILES IDX 6 1 7 2 8 3 9 4 4 5 5 6 2 9 1 10 3 11
REMARK H PARENT 9 7 9 8
ROOT
ATOM      1  C   UNL     1     135.110 132.847 122.848  1.00  0.00     0.012 C 
ATOM      2  C   UNL     1     135.525 131.789 121.875  1.00  0.00     0.062 C 
ATOM      3  C   UNL     1     137.051 131.661 121.810  1.00  0.00     0.261 C 
ATOM      4  N   UNL     1     137.451 131.382 123.163  1.00  0.00    -0.339 N 
ATOM      5  C   UNL     1     137.285 132.626 123.897  1.00  0.00     0.229 C 
ATOM      6  C   UNL     1     135.827 132.763 124.173  1.00  0.00     0.072 C 
ATOM      7  H   UNL     1     136.761 130.672 123.528  1.00  0.00     0.346 HD
ATOM      8  H   UNL     1     138.392 130.950 123.263  1.00  0.00     0.346 HD
ENDROOT
BRANCH   5   9
ATOM      9  C   UNL     1     138.135 132.666 125.108  1.00  0.00     0.099 C 
ATOM     10  O   UNL     1     137.808 133.444 126.042  1.00  0.00    -0.544 OA
ATOM     11  O   UNL     1     139.269 131.867 125.229  1.00  0.00    -0.544 OA
ENDBRANCH   5   9
TORSDOF 1
ENDMDL
MODEL 2
REMARK VINA RESULT:    -5.956      1.170      1.798
REMARK INTER + INTRA:          -6.339
REMARK INTER:                  -6.302
REMARK INTRA:                  -0.037
REMARK UNBOUND:                -0.035
REMARK SMILES O=C([O-])[C@@H]1CCCC[NH2+]1
REMARK SMILES IDX 6 1 7 2 8 3 9 4 4 5 5 6 2 9 1 10 3 11
REMARK H PARENT 9 7 9 8
ROOT
ATOM      1  C   UNL     1     135.946 131.867 122.079  1.00  0.00     0.012 C 
ATOM      2  C   UNL     1     134.851 132.858 122.310  1.00  0.00     0.062 C 
ATOM      3  C   UNL     1     134.616 133.089 123.808  1.00  0.00     0.261 C 
ATOM      4  N   UNL     1     135.892 133.519 124.314  1.00  0.00    -0.339 N 
ATOM      5  C   UNL     1     136.741 132.339 124.322  1.00  0.00     0.229 C 
ATOM      6  C   UNL     1     137.178 132.122 122.914  1.00  0.00     0.072 C 
ATOM      7  H   UNL     1     136.267 134.207 123.608  1.00  0.00     0.346 HD
ATOM      8  H   UNL     1     135.857 134.024 125.222  1.00  0.00     0.346 HD
ENDROOT
BRANCH   5   9
ATOM      9  C   UNL     1     137.855 132.471 125.286  1.00  0.00     0.099 C 
ATOM     10  O   UNL     1     137.840 133.440 126.089  1.00  0.00    -0.544 OA
ATOM     11  O   UNL     1     138.903 131.554 125.318  1.00  0.00    -0.544 OA
ENDBRANCH   5   9
TORSDOF 1
ENDMDL
MODEL 3
REMARK VINA RESULT:    -4.471      2.697      3.745
REMARK INTER + INTRA:          -4.767
REMARK INTER:                  -4.747
REMARK INTRA:                  -0.020
REMARK UNBOUND:                -0.035
REMARK SMILES O=C([O-])[C@@H]1CCCC[NH2+]1
REMARK SMILES IDX 6 1 7 2 8 3 9 4 4 5 5 6 2 9 1 10 3 11
REMARK H PARENT 9 7 9 8
ROOT
ATOM      1  C   UNL     1     138.894 132.467 124.077  1.00  0.00     0.012 C 
ATOM      2  C   UNL     1     138.370 131.722 125.263  1.00  0.00     0.062 C 
ATOM      3  C   UNL     1     137.002 132.260 125.698  1.00  0.00     0.261 C 
ATOM      4  N   UNL     1     136.172 132.131 124.530  1.00  0.00    -0.339 N 
ATOM      5  C   UNL     1     136.618 133.159 123.603  1.00  0.00     0.229 C 
ATOM      6  C   UNL     1     137.873 132.652 122.981  1.00  0.00     0.072 C 
ATOM      7  H   UNL     1     136.391 131.183 124.123  1.00  0.00     0.346 HD
ATOM      8  H   UNL     1     135.149 132.139 124.714  1.00  0.00     0.346 HD
ENDROOT
BRANCH   5   9
ATOM      9  C   UNL     1     135.563 133.515 122.629  1.00  0.00     0.099 C 
ATOM     10  O   UNL     1     135.203 134.718 122.551  1.00  0.00    -0.544 OA
ATOM     11  O   UNL     1     134.972 132.555 121.812  1.00  0.00    -0.544 OA
ENDBRANCH   5   9
TORSDOF 1
ENDMDL
MODEL 4
REMARK VINA RESULT:    -3.725      2.567      3.351
REMARK INTER + INTRA:          -3.978
REMARK INTER:                  -3.955
REMARK INTRA:                  -0.023
REMARK UNBOUND:                -0.035
REMARK SMILES O=C([O-])[C@@H]1CCCC[NH2+]1
REMARK SMILES IDX 6 1 7 2 8 3 9 4 4 5 5 6 2 9 1 10 3 11
REMARK H PARENT 9 7 9 8
ROOT
ATOM      1  C   UNL     1     136.925 131.852 121.856  1.00  0.00     0.012 C 
ATOM      2  C   UNL     1     137.979 131.607 122.888  1.00  0.00     0.062 C 
ATOM      3  C   UNL     1     137.998 132.724 123.939  1.00  0.00     0.261 C 
ATOM      4  N   UNL     1     136.664 132.741 124.477  1.00  0.00    -0.339 N 
ATOM      5  C   UNL     1     135.819 133.316 123.443  1.00  0.00     0.229 C 
ATOM      6  C   UNL     1     135.587 132.240 122.438  1.00  0.00     0.072 C 
ATOM      7  H   UNL     1     136.395 131.730 124.617  1.00  0.00     0.346 HD
ATOM      8  H   UNL     1     136.570 133.197 125.406  1.00  0.00     0.346 HD
ENDROOT
BRANCH   5   9
ATOM      9  C   UNL     1     134.579 133.894 124.006  1.00  0.00     0.099 C 
ATOM     10  O   UNL     1     133.761 133.120 124.567  1.00  0.00    -0.544 OA
ATOM     11  O   UNL     1     134.309 135.257 123.926  1.00  0.00    -0.544 OA
ENDBRANCH   5   9
TORSDOF 1
ENDMDL
MODEL 5
REMARK VINA RESULT:    -3.260     10.334     10.645
REMARK INTER + INTRA:          -3.486
REMARK INTER:                  -3.450
REMARK INTRA:                  -0.035
REMARK UNBOUND:                -0.035
REMARK SMILES O=C([O-])[C@@H]1CCCC[NH2+]1
REMARK SMILES IDX 6 1 7 2 8 3 9 4 4 5 5 6 2 9 1 10 3 11
REMARK H PARENT 9 7 9 8
ROOT
ATOM      1  C   UNL     1     137.103 139.421 115.867  1.00  0.00     0.012 C 
ATOM      2  C   UNL     1     136.944 140.798 115.306  1.00  0.00     0.062 C 
ATOM      3  C   UNL     1     137.161 141.866 116.385  1.00  0.00     0.261 C 
ATOM      4  N   UNL     1     138.480 141.606 116.895  1.00  0.00    -0.339 N 
ATOM      5  C   UNL     1     138.372 140.393 117.690  1.00  0.00     0.229 C 
ATOM      6  C   UNL     1     138.332 139.257 116.727  1.00  0.00     0.072 C 
ATOM      7  H   UNL     1     139.084 141.411 116.052  1.00  0.00     0.346 HD
ATOM      8  H   UNL     1     138.924 142.403 117.392  1.00  0.00     0.346 HD
ENDROOT
BRANCH   5   9
ATOM      9  C   UNL     1     139.456 140.297 118.693  1.00  0.00     0.099 C 
ATOM     10  O   UNL     1     139.958 139.166 118.923  1.00  0.00    -0.544 OA
ATOM     11  O   UNL     1     139.922 141.419 119.373  1.00  0.00    -0.544 OA
ENDBRANCH   5   9
TORSDOF 1
ENDMDL
