MODEL 1
REMARK VINA RESULT:    -6.334      0.000      0.000
REMARK INTER + INTRA:          -8.574
REMARK INTER:                  -8.186
REMARK INTRA:                  -0.388
REMARK UNBOUND:                -0.388
REMARK SMILES NC(=O)CC[C@H](N)C(=O)O
REMARK SMILES IDX 5 1 4 2 2 3 3 4 1 5 6 8 8 9 9 10 10 11 7 13
REMARK H PARENT 1 6 1 7 10 12 7 14 7 15
ROOT
ATOM      1  C   UNL     1     136.600 132.080 124.167  1.00  0.00     0.040 C 
ENDROOT
BRANCH   1   2
ATOM      2  C   UNL     1     135.317 132.758 124.404  1.00  0.00     0.102 C 
BRANCH   2   3
ATOM      3  C   UNL     1     135.245 134.009 123.590  1.00  0.00     0.217 C 
ATOM      4  O   UNL     1     134.430 134.938 123.842  1.00  0.00    -0.275 OA
ATOM      5  N   UNL     1     136.161 134.108 122.489  1.00  0.00    -0.370 N 
ATOM      6  H   UNL     1     135.745 133.988 121.521  1.00  0.00     0.159 HD
ATOM      7  H   UNL     1     137.182 134.288 122.624  1.00  0.00     0.159 HD
ENDBRANCH   2   3
ENDBRANCH   1   2
BRANCH   1   8
ATOM      8  C   UNL     1     137.541 131.968 125.300  1.00  0.00     0.162 C 
BRANCH   8   9
ATOM      9  C   UNL     1     138.856 132.445 124.795  1.00  0.00     0.320 C 
ATOM     10  O   UNL     1     138.971 133.260 123.840  1.00  0.00    -0.251 OA
BRANCH   9  11
ATOM     11  O   UNL     1     140.002 131.964 125.414  1.00  0.00    -0.480 OA
ATOM     12  H   UNL     1     140.508 131.176 125.032  1.00  0.00     0.296 HD
ENDBRANCH   9  11
ENDBRANCH   8   9
BRANCH   8  13
ATOM     13  N   UNL     1     137.039 132.805 126.356  1.00  0.00    -0.318 NA
ATOM     14  H   UNL     1     136.848 132.190 127.191  1.00  0.00     0.119 HD
ATOM     15  H   UNL     1     136.102 133.146 126.044  1.00  0.00     0.119 HD
ENDBRANCH   8  13
ENDBRANCH   1   8
TORSDOF 6
ENDMDL
MODEL 2
REMARK VINA RESULT:    -6.102      1.173      1.542
REMARK INTER + INTRA:          -8.273
REMARK INTER:                  -7.725
REMARK INTRA:                  -0.548
REMARK UNBOUND:                -0.388
REMARK SMILES NC(=O)CC[C@H](N)C(=O)O
REMARK SMILES IDX 5 1 4 2 2 3 3 4 1 5 6 8 8 9 9 10 10 11 7 13
REMARK H PARENT 1 6 1 7 10 12 7 14 7 15
ROOT
ATOM      1  C   UNL     1     136.734 131.721 124.467  1.00  0.00     0.040 C 
ENDROOT
BRANCH   1   2
ATOM      2  C   UNL     1     135.614 132.630 124.186  1.00  0.00     0.102 C 
BRANCH   2   3
ATOM      3  C   UNL     1     135.704 133.132 122.782  1.00  0.00     0.217 C 
ATOM      4  O   UNL     1     134.808 132.914 121.923  1.00  0.00    -0.275 OA
ATOM      5  N   UNL     1     136.879 133.887 122.449  1.00  0.00    -0.370 N 
ATOM      6  H   UNL     1     137.598 133.394 121.844  1.00  0.00     0.159 HD
ATOM      7  H   UNL     1     137.028 134.868 122.780  1.00  0.00     0.159 HD
ENDBRANCH   2   3
ENDBRANCH   1   2
BRANCH   1   8
ATOM      8  C   UNL     1     137.697 132.115 125.516  1.00  0.00     0.162 C 
BRANCH   8   9
ATOM      9  C   UNL     1     139.050 131.849 124.958  1.00  0.00     0.320 C 
ATOM     10  O   UNL     1     139.969 131.291 125.617  1.00  0.00    -0.251 OA
BRANCH   9  11
ATOM     11  O   UNL     1     139.298 132.237 123.648  1.00  0.00    -0.480 OA
ATOM     12  H   UNL     1     138.701 132.907 123.182  1.00  0.00     0.296 HD
ENDBRANCH   9  11
ENDBRANCH   8   9
BRANCH   8  13
ATOM     13  N   UNL     1     137.493 133.514 125.777  1.00  0.00    -0.318 NA
ATOM     14  H   UNL     1     136.511 133.757 125.479  1.00  0.00     0.119 HD
ATOM     15  H   UNL     1     138.117 134.034 125.120  1.00  0.00     0.119 HD
ENDBRANCH   8  13
ENDBRANCH   1   8
TORSDOF 6
ENDMDL
MODEL 3
REMARK VINA RESULT:    -5.996      1.844      3.899
REMARK INTER + INTRA:          -8.136
REMARK INTER:                  -7.709
REMARK INTRA:                  -0.427
REMARK UNBOUND:                -0.388
REMARK SMILES NC(=O)CC[C@H](N)C(=O)O
REMARK SMILES IDX 5 1 4 2 2 3 3 4 1 5 6 8 8 9 9 10 10 11 7 13
REMARK H PARENT 1 6 1 7 10 12 7 14 7 15
ROOT
ATOM      1  C   UNL     1     136.535 132.864 125.109  1.00  0.00     0.040 C 
ENDROOT
BRANCH   1   2
ATOM      2  C   UNL     1     137.485 131.745 125.190  1.00  0.00     0.102 C 
BRANCH   2   3
ATOM      3  C   UNL     1     138.849 132.205 124.792  1.00  0.00     0.217 C 
ATOM      4  O   UNL     1     139.043 133.241 124.101  1.00  0.00    -0.275 OA
ATOM      5  N   UNL     1     139.950 131.398 125.239  1.00  0.00    -0.370 N 
ATOM      6  H   UNL     1     140.425 130.802 124.501  1.00  0.00     0.159 HD
ATOM      7  H   UNL     1     140.272 131.392 126.234  1.00  0.00     0.159 HD
ENDBRANCH   2   3
ENDBRANCH   1   2
BRANCH   1   8
ATOM      8  C   UNL     1     135.403 132.742 124.167  1.00  0.00     0.162 C 
BRANCH   8   9
ATOM      9  C   UNL     1     135.739 133.604 123.002  1.00  0.00     0.320 C 
ATOM     10  O   UNL     1     135.181 134.713 122.783  1.00  0.00    -0.251 OA
BRANCH   9  11
ATOM     11  O   UNL     1     136.717 133.155 122.124  1.00  0.00    -0.480 OA
ATOM     12  H   UNL     1     136.632 132.258 121.666  1.00  0.00     0.296 HD
ENDBRANCH   9  11
ENDBRANCH   8   9
BRANCH   8  13
ATOM     13  N   UNL     1     135.305 131.357 123.795  1.00  0.00    -0.318 NA
ATOM     14  H   UNL     1     134.565 131.275 123.048  1.00  0.00     0.119 HD
ATOM     15  H   UNL     1     134.917 130.853 124.624  1.00  0.00     0.119 HD
ENDBRANCH   8  13
ENDBRANCH   1   8
TORSDOF 6
ENDMDL
MODEL 4
REMARK VINA RESULT:    -5.543      2.303      3.692
REMARK INTER + INTRA:          -7.551
REMARK INTER:                  -7.209
REMARK INTRA:                  -0.342
REMARK UNBOUND:                -0.388
REMARK SMILES NC(=O)CC[C@H](N)C(=O)O
REMARK SMILES IDX 5 1 4 2 2 3 3 4 1 5 6 8 8 9 9 10 10 11 7 13
REMARK H PARENT 1 6 1 7 10 12 7 14 7 15
ROOT
ATOM      1  C   UNL     1     135.906 132.472 124.125  1.00  0.00     0.040 C 
ENDROOT
BRANCH   1   2
ATOM      2  C   UNL     1     136.851 131.733 124.975  1.00  0.00     0.102 C 
BRANCH   2   3
ATOM      3  C   UNL     1     138.082 132.549 125.199  1.00  0.00     0.217 C 
ATOM      4  O   UNL     1     138.079 133.610 125.880  1.00  0.00    -0.275 OA
ATOM      5  N   UNL     1     139.288 132.064 124.591  1.00  0.00    -0.370 N 
ATOM      6  H   UNL     1     139.632 132.596 123.740  1.00  0.00     0.159 HD
ATOM      7  H   UNL     1     139.806 131.233 124.960  1.00  0.00     0.159 HD
ENDBRANCH   2   3
ENDBRANCH   1   2
BRANCH   1   8
ATOM      8  C   UNL     1     136.425 133.083 122.884  1.00  0.00     0.162 C 
BRANCH   8   9
ATOM      9  C   UNL     1     136.578 131.970 121.908  1.00  0.00     0.320 C 
ATOM     10  O   UNL     1     135.600 131.425 121.328  1.00  0.00    -0.251 OA
BRANCH   9  11
ATOM     11  O   UNL     1     137.863 131.523 121.630  1.00  0.00    -0.480 OA
ATOM     12  H   UNL     1     138.657 131.860 122.159  1.00  0.00     0.296 HD
ENDBRANCH   9  11
ENDBRANCH   8   9
BRANCH   8  13
ATOM     13  N   UNL     1     135.454 134.048 122.446  1.00  0.00    -0.318 NA
ATOM     14  H   UNL     1     135.327 134.751 123.222  1.00  0.00     0.119 HD
ATOM     15  H   UNL     1     134.542 133.543 122.380  1.00  0.00     0.119 HD
ENDBRANCH   8  13
ENDBRANCH   1   8
TORSDOF 6
ENDMDL
MODEL 5
REMARK VINA RESULT:    -4.116      9.900     11.598
REMARK INTER + INTRA:          -5.707
REMARK INTER:                  -5.416
REMARK INTRA:                  -0.291
REMARK UNBOUND:                -0.388
REMARK SMILES NC(=O)CC[C@H](N)C(=O)O
REMARK SMILES IDX 5 1 4 2 2 3 3 4 1 5 6 8 8 9 9 10 10 11 7 13
REMARK H PARENT 1 6 1 7 10 12 7 14 7 15
ROOT
ATOM      1  C   UNL     1     138.984 139.626 115.800  1.00  0.00     0.040 C 
ENDROOT
BRANCH   1   2
ATOM      2  C   UNL     1     138.425 139.021 117.017  1.00  0.00     0.102 C 
BRANCH   2   3
ATOM      3  C   UNL     1     139.276 139.366 118.195  1.00  0.00     0.217 C 
ATOM      4  O   UNL     1     140.221 138.631 118.590  1.00  0.00    -0.275 OA
ATOM      5  N   UNL     1     138.964 140.594 118.870  1.00  0.00    -0.370 N 
ATOM      6  H   UNL     1     138.482 140.502 119.812  1.00  0.00     0.159 HD
ATOM      7  H   UNL     1     139.193 141.530 118.465  1.00  0.00     0.159 HD
ENDBRANCH   2   3
ENDBRANCH   1   2
BRANCH   1   8
ATOM      8  C   UNL     1     138.082 140.434 114.953  1.00  0.00     0.162 C 
BRANCH   8   9
ATOM      9  C   UNL     1     137.452 141.434 115.856  1.00  0.00     0.320 C 
ATOM     10  O   UNL     1     138.115 142.278 116.517  1.00  0.00    -0.251 OA
BRANCH   9  11
ATOM     11  O   UNL     1     136.068 141.428 115.965  1.00  0.00    -0.480 OA
ATOM     12  H   UNL     1     135.489 141.870 115.263  1.00  0.00     0.296 HD
ENDBRANCH   9  11
ENDBRANCH   8   9
BRANCH   8  13
ATOM     13  N   UNL     1     138.893 141.061 113.945  1.00  0.00    -0.318 NA
ATOM     14  H   UNL     1     138.999 140.379 113.147  1.00  0.00     0.119 HD
ATOM     15  H   UNL     1     139.850 141.159 114.352  1.00  0.00     0.119 HD
ENDBRANCH   8  13
ENDBRANCH   1   8
TORSDOF 6
ENDMDL
MODEL 6
REMARK VINA RESULT:    -3.465      1.626      1.764
REMARK INTER + INTRA:          -4.866
REMARK INTER:                  -5.225
REMARK INTRA:                   0.358
REMARK UNBOUND:                -0.388
REMARK SMILES NC(=O)CC[C@H](N)C(=O)O
REMARK SMILES IDX 5 1 4 2 2 3 3 4 1 5 6 8 8 9 9 10 10 11 7 13
REMARK H PARENT 1 6 1 7 10 12 7 14 7 15
ROOT
ATOM      1  C   UNL     1     137.061 131.877 123.026  1.00  0.00     0.040 C 
ENDROOT
BRANCH   1   2
ATOM      2  C   UNL     1     136.459 133.181 122.709  1.00  0.00     0.102 C 
BRANCH   2   3
ATOM      3  C   UNL     1     135.236 133.393 123.540  1.00  0.00     0.217 C 
ATOM      4  O   UNL     1     134.675 134.517 123.648  1.00  0.00    -0.275 OA
ATOM      5  N   UNL     1     134.721 132.240 124.223  1.00  0.00    -0.370 N 
ATOM      6  H   UNL     1     134.882 132.206 125.272  1.00  0.00     0.159 HD
ATOM      7  H   UNL     1     134.215 131.473 123.725  1.00  0.00     0.159 HD
ENDBRANCH   2   3
ENDBRANCH   1   2
BRANCH   1   8
ATOM      8  C   UNL     1     138.076 131.827 124.098  1.00  0.00     0.162 C 
BRANCH   8   9
ATOM      9  C   UNL     1     138.414 133.241 124.415  1.00  0.00     0.320 C 
ATOM     10  O   UNL     1     139.260 133.909 123.761  1.00  0.00    -0.251 OA
BRANCH   9  11
ATOM     11  O   UNL     1     137.758 133.840 125.482  1.00  0.00    -0.480 OA
ATOM     12  H   UNL     1     136.957 134.439 125.330  1.00  0.00     0.296 HD
ENDBRANCH   9  11
ENDBRANCH   8   9
BRANCH   8  13
ATOM     13  N   UNL     1     137.478 131.156 125.220  1.00  0.00    -0.318 NA
ATOM     14  H   UNL     1     136.609 131.691 125.488  1.00  0.00     0.119 HD
ATOM     15  H   UNL     1     138.134 131.277 126.023  1.00  0.00     0.119 HD
ENDBRANCH   8  13
ENDBRANCH   1   8
TORSDOF 6
ENDMDL
MODEL 7
REMARK VINA RESULT:    -3.387     10.217     11.570
REMARK INTER + INTRA:          -4.765
REMARK INTER:                  -4.320
REMARK INTRA:                  -0.445
REMARK UNBOUND:                -0.388
REMARK SMILES NC(=O)CC[C@H](N)C(=O)O
REMARK SMILES IDX 5 1 4 2 2 3 3 4 1 5 6 8 8 9 9 10 10 11 7 13
REMARK H PARENT 1 6 1 7 10 12 7 14 7 15
ROOT
ATOM      1  C   UNL     1     138.581 141.217 116.678  1.00  0.00     0.040 C 
ENDROOT
BRANCH   1   2
ATOM      2  C   UNL     1     138.201 140.360 117.810  1.00  0.00     0.102 C 
BRANCH   2   3
ATOM      3  C   UNL     1     139.176 139.236 117.948  1.00  0.00     0.217 C 
ATOM      4  O   UNL     1     139.433 138.440 117.005  1.00  0.00    -0.275 OA
ATOM      5  N   UNL     1     139.817 139.101 119.225  1.00  0.00    -0.370 N 
ATOM      6  H   UNL     1     139.487 138.296 119.832  1.00  0.00     0.159 HD
ATOM      7  H   UNL     1     140.568 139.754 119.548  1.00  0.00     0.159 HD
ENDBRANCH   2   3
ENDBRANCH   1   2
BRANCH   1   8
ATOM      8  C   UNL     1     137.903 140.994 115.384  1.00  0.00     0.162 C 
BRANCH   8   9
ATOM      9  C   UNL     1     138.981 140.742 114.390  1.00  0.00     0.320 C 
ATOM     10  O   UNL     1     139.465 141.645 113.657  1.00  0.00    -0.251 OA
BRANCH   9  11
ATOM     11  O   UNL     1     139.467 139.446 114.276  1.00  0.00    -0.480 OA
ATOM     12  H   UNL     1     139.915 138.988 115.058  1.00  0.00     0.296 HD
ENDBRANCH   9  11
ENDBRANCH   8   9
BRANCH   8  13
ATOM     13  N   UNL     1     137.046 139.851 115.545  1.00  0.00    -0.318 NA
ATOM     14  H   UNL     1     136.050 140.198 115.582  1.00  0.00     0.119 HD
ATOM     15  H   UNL     1     137.239 139.465 116.496  1.00  0.00     0.119 HD
ENDBRANCH   8  13
ENDBRANCH   1   8
TORSDOF 6
ENDMDL
