MODEL 1
REMARK VINA RESULT:    -4.857      0.000      0.000
REMARK INTER + INTRA:          -6.459
REMARK INTER:                  -6.277
REMARK INTRA:                  -0.182
REMARK UNBOUND:                -0.182
REMARK SMILES CSCC[C@H](N)C(=O)O
REMARK SMILES IDX 4 1 3 2 2 3 1 4 5 5 7 6 8 7 9 8 6 10
REMARK H PARENT 9 9 6 11 6 12
ROOT
ATOM      1  C   UNL     1     136.661 131.669 124.613  1.00  0.00     0.041 C 
ENDROOT
BRANCH   1   2
ATOM      2  C   UNL     1     135.744 132.760 124.148  1.00  0.00     0.071 C 
BRANCH   2   3
ATOM      3  S   UNL     1     135.599 132.802 122.345  1.00  0.00    -0.165 SA
ATOM      4  C   UNL     1     136.653 131.527 121.632  1.00  0.00     0.085 C 
ENDBRANCH   2   3
ENDBRANCH   1   2
BRANCH   1   5
ATOM      5  C   UNL     1     137.764 132.118 125.518  1.00  0.00     0.162 C 
BRANCH   5   6
ATOM      6  C   UNL     1     139.090 132.088 124.897  1.00  0.00     0.320 C 
ATOM      7  O   UNL     1     139.318 132.894 123.945  1.00  0.00    -0.251 OA
BRANCH   6   8
ATOM      8  O   UNL     1     140.122 131.244 125.269  1.00  0.00    -0.480 OA
ATOM      9  H   UNL     1     139.931 130.468 125.910  1.00  0.00     0.296 HD
ENDBRANCH   6   8
ENDBRANCH   5   6
BRANCH   5  10
ATOM     10  N   UNL     1     137.544 133.395 126.136  1.00  0.00    -0.318 NA
ATOM     11  H   UNL     1     138.387 134.007 126.180  1.00  0.00     0.119 HD
ATOM     12  H   UNL     1     136.976 133.389 126.988  1.00  0.00     0.119 HD
ENDBRANCH   5  10
ENDBRANCH   1   5
TORSDOF 6
ENDMDL
MODEL 2
REMARK VINA RESULT:    -4.777      1.486      2.065
REMARK INTER + INTRA:          -6.356
REMARK INTER:                  -6.238
REMARK INTRA:                  -0.118
REMARK UNBOUND:                -0.182
REMARK SMILES CSCC[C@H](N)C(=O)O
REMARK SMILES IDX 4 1 3 2 2 3 1 4 5 5 7 6 8 7 9 8 6 10
REMARK H PARENT 9 9 6 11 6 12
ROOT
ATOM      1  C   UNL     1     136.902 132.212 124.434  1.00  0.00     0.041 C 
ENDROOT
BRANCH   1   2
ATOM      2  C   UNL     1     136.626 132.171 122.962  1.00  0.00     0.071 C 
BRANCH   2   3
ATOM      3  S   UNL     1     135.077 133.003 122.538  1.00  0.00    -0.165 SA
ATOM      4  C   UNL     1     134.610 134.112 123.878  1.00  0.00     0.085 C 
ENDBRANCH   2   3
ENDBRANCH   1   2
BRANCH   1   5
ATOM      5  C   UNL     1     138.260 132.715 124.806  1.00  0.00     0.162 C 
BRANCH   5   6
ATOM      6  C   UNL     1     139.113 131.706 125.438  1.00  0.00     0.320 C 
ATOM      7  O   UNL     1     138.564 130.640 125.853  1.00  0.00    -0.251 OA
BRANCH   6   8
ATOM      8  O   UNL     1     140.480 131.822 125.621  1.00  0.00    -0.480 OA
ATOM      9  H   UNL     1     141.076 132.054 124.821  1.00  0.00     0.296 HD
ENDBRANCH   6   8
ENDBRANCH   5   6
BRANCH   5  10
ATOM     10  N   UNL     1     138.971 133.354 123.737  1.00  0.00    -0.318 NA
ATOM     11  H   UNL     1     139.899 132.930 123.517  1.00  0.00     0.119 HD
ATOM     12  H   UNL     1     138.961 134.378 123.740  1.00  0.00     0.119 HD
ENDBRANCH   5  10
ENDBRANCH   1   5
TORSDOF 6
ENDMDL
MODEL 3
REMARK VINA RESULT:    -4.588      3.269      4.125
REMARK INTER + INTRA:          -6.112
REMARK INTER:                  -5.940
REMARK INTRA:                  -0.172
REMARK UNBOUND:                -0.182
REMARK SMILES CSCC[C@H](N)C(=O)O
REMARK SMILES IDX 4 1 3 2 2 3 1 4 5 5 7 6 8 7 9 8 6 10
REMARK H PARENT 9 9 6 11 6 12
ROOT
ATOM      1  C   UNL     1     135.177 132.048 124.122  1.00  0.00     0.041 C 
ENDROOT
BRANCH   1   2
ATOM      2  C   UNL     1     136.122 132.708 125.080  1.00  0.00     0.071 C 
BRANCH   2   3
ATOM      3  S   UNL     1     137.720 131.862 125.148  1.00  0.00    -0.165 SA
ATOM      4  C   UNL     1     138.887 132.703 124.064  1.00  0.00     0.085 C 
ENDBRANCH   2   3
ENDBRANCH   1   2
BRANCH   1   5
ATOM      5  C   UNL     1     135.087 132.699 122.779  1.00  0.00     0.162 C 
BRANCH   5   6
ATOM      6  C   UNL     1     135.388 134.131 122.792  1.00  0.00     0.320 C 
ATOM      7  O   UNL     1     136.457 134.519 122.230  1.00  0.00    -0.251 OA
BRANCH   6   8
ATOM      8  O   UNL     1     134.594 135.105 123.373  1.00  0.00    -0.480 OA
ATOM      9  H   UNL     1     133.848 134.827 124.018  1.00  0.00     0.296 HD
ENDBRANCH   6   8
ENDBRANCH   5   6
BRANCH   5  10
ATOM     10  N   UNL     1     135.851 132.050 121.751  1.00  0.00    -0.318 NA
ATOM     11  H   UNL     1     136.543 132.665 121.270  1.00  0.00     0.119 HD
ATOM     12  H   UNL     1     135.328 131.428 121.129  1.00  0.00     0.119 HD
ENDBRANCH   5  10
ENDBRANCH   1   5
TORSDOF 6
ENDMDL
MODEL 4
REMARK VINA RESULT:    -4.208      2.875      3.900
REMARK INTER + INTRA:          -5.621
REMARK INTER:                  -5.559
REMARK INTRA:                  -0.062
REMARK UNBOUND:                -0.182
REMARK SMILES CSCC[C@H](N)C(=O)O
REMARK SMILES IDX 4 1 3 2 2 3 1 4 5 5 7 6 8 7 9 8 6 10
REMARK H PARENT 9 9 6 11 6 12
ROOT
ATOM      1  C   UNL     1     135.691 132.857 124.575  1.00  0.00     0.041 C 
ENDROOT
BRANCH   1   2
ATOM      2  C   UNL     1     136.819 132.153 125.266  1.00  0.00     0.071 C 
BRANCH   2   3
ATOM      3  S   UNL     1     138.433 132.706 124.663  1.00  0.00    -0.165 SA
ATOM      4  C   UNL     1     139.715 131.616 125.306  1.00  0.00     0.085 C 
ENDBRANCH   2   3
ENDBRANCH   1   2
BRANCH   1   5
ATOM      5  C   UNL     1     136.034 133.437 123.240  1.00  0.00     0.162 C 
BRANCH   5   6
ATOM      6  C   UNL     1     135.881 132.497 122.128  1.00  0.00     0.320 C 
ATOM      7  O   UNL     1     134.739 132.401 121.584  1.00  0.00    -0.251 OA
BRANCH   6   8
ATOM      8  O   UNL     1     136.889 131.697 121.618  1.00  0.00    -0.480 OA
ATOM      9  H   UNL     1     137.867 131.956 121.782  1.00  0.00     0.296 HD
ENDBRANCH   6   8
ENDBRANCH   5   6
BRANCH   5  10
ATOM     10  N   UNL     1     135.361 134.668 122.935  1.00  0.00    -0.318 NA
ATOM     11  H   UNL     1     134.382 134.726 123.290  1.00  0.00     0.119 HD
ATOM     12  H   UNL     1     135.494 135.027 121.986  1.00  0.00     0.119 HD
ENDBRANCH   5  10
ENDBRANCH   1   5
TORSDOF 6
ENDMDL
MODEL 5
REMARK VINA RESULT:    -4.154      1.295      2.065
REMARK INTER + INTRA:          -5.550
REMARK INTER:                  -5.447
REMARK INTRA:                  -0.103
REMARK UNBOUND:                -0.182
REMARK SMILES CSCC[C@H](N)C(=O)O
REMARK SMILES IDX 4 1 3 2 2 3 1 4 5 5 7 6 8 7 9 8 6 10
REMARK H PARENT 9 9 6 11 6 12
ROOT
ATOM      1  C   UNL     1     136.705 132.447 123.798  1.00  0.00     0.041 C 
ENDROOT
BRANCH   1   2
ATOM      2  C   UNL     1     135.344 131.820 123.776  1.00  0.00     0.071 C 
BRANCH   2   3
ATOM      3  S   UNL     1     134.048 132.999 124.229  1.00  0.00    -0.165 SA
ATOM      4  C   UNL     1     134.599 134.669 123.843  1.00  0.00     0.085 C 
ENDBRANCH   2   3
ENDBRANCH   1   2
BRANCH   1   5
ATOM      5  C   UNL     1     137.518 132.142 125.015  1.00  0.00     0.162 C 
BRANCH   5   6
ATOM      6  C   UNL     1     138.962 132.269 124.810  1.00  0.00     0.320 C 
ATOM      7  O   UNL     1     139.730 131.602 125.568  1.00  0.00    -0.251 OA
BRANCH   6   8
ATOM      8  O   UNL     1     139.562 133.065 123.850  1.00  0.00    -0.480 OA
ATOM      9  H   UNL     1     139.670 134.069 124.024  1.00  0.00     0.296 HD
ENDBRANCH   6   8
ENDBRANCH   5   6
BRANCH   5  10
ATOM     10  N   UNL     1     137.126 132.869 126.189  1.00  0.00    -0.318 NA
ATOM     11  H   UNL     1     137.296 132.366 127.088  1.00  0.00     0.119 HD
ATOM     12  H   UNL     1     136.227 133.356 126.136  1.00  0.00     0.119 HD
ENDBRANCH   5  10
ENDBRANCH   1   5
TORSDOF 6
ENDMDL
MODEL 6
REMARK VINA RESULT:    -3.861      3.460      4.079
REMARK INTER + INTRA:          -5.172
REMARK INTER:                  -5.012
REMARK INTRA:                  -0.160
REMARK UNBOUND:                -0.182
REMARK SMILES CSCC[C@H](N)C(=O)O
REMARK SMILES IDX 4 1 3 2 2 3 1 4 5 5 7 6 8 7 9 8 6 10
REMARK H PARENT 9 9 6 11 6 12
ROOT
ATOM      1  C   UNL     1     136.240 133.170 124.974  1.00  0.00     0.041 C 
ENDROOT
BRANCH   1   2
ATOM      2  C   UNL     1     136.950 132.056 125.682  1.00  0.00     0.071 C 
BRANCH   2   3
ATOM      3  S   UNL     1     138.647 131.850 125.091  1.00  0.00    -0.165 SA
ATOM      4  C   UNL     1     138.928 132.943 123.688  1.00  0.00     0.085 C 
ENDBRANCH   2   3
ENDBRANCH   1   2
BRANCH   1   5
ATOM      5  C   UNL     1     135.143 132.733 124.055  1.00  0.00     0.162 C 
BRANCH   5   6
ATOM      6  C   UNL     1     135.134 133.431 122.769  1.00  0.00     0.320 C 
ATOM      7  O   UNL     1     134.849 132.760 121.730  1.00  0.00    -0.251 OA
BRANCH   6   8
ATOM      8  O   UNL     1     135.413 134.775 122.591  1.00  0.00    -0.480 OA
ATOM      9  H   UNL     1     135.983 135.069 121.792  1.00  0.00     0.296 HD
ENDBRANCH   6   8
ENDBRANCH   5   6
BRANCH   5  10
ATOM     10  N   UNL     1     135.076 131.315 123.841  1.00  0.00    -0.318 NA
ATOM     11  H   UNL     1     135.536 130.986 122.965  1.00  0.00     0.119 HD
ATOM     12  H   UNL     1     134.174 130.874 124.040  1.00  0.00     0.119 HD
ENDBRANCH   5  10
ENDBRANCH   1   5
TORSDOF 6
ENDMDL
MODEL 7
REMARK VINA RESULT:    -3.175     11.123     11.997
REMARK INTER + INTRA:          -4.286
REMARK INTER:                  -4.168
REMARK INTRA:                  -0.118
REMARK UNBOUND:                -0.182
REMARK SMILES CSCC[C@H](N)C(=O)O
REMARK SMILES IDX 4 1 3 2 2 3 1 4 5 5 7 6 8 7 9 8 6 10
REMARK H PARENT 9 9 6 11 6 12
ROOT
ATOM      1  C   UNL     1     139.255 139.477 115.960  1.00  0.00     0.041 C 
ENDROOT
BRANCH   1   2
ATOM      2  C   UNL     1     138.559 138.696 117.034  1.00  0.00     0.071 C 
BRANCH   2   3
ATOM      3  S   UNL     1     139.304 138.967 118.660  1.00  0.00    -0.165 SA
ATOM      4  C   UNL     1     139.525 140.734 118.929  1.00  0.00     0.085 C 
ENDBRANCH   2   3
ENDBRANCH   1   2
BRANCH   1   5
ATOM      5  C   UNL     1     138.353 140.303 115.099  1.00  0.00     0.162 C 
BRANCH   5   6
ATOM      6  C   UNL     1     137.481 141.208 115.851  1.00  0.00     0.320 C 
ATOM      7  O   UNL     1     138.016 142.197 116.438  1.00  0.00    -0.251 OA
BRANCH   6   8
ATOM      8  O   UNL     1     136.109 141.070 115.974  1.00  0.00    -0.480 OA
ATOM      9  H   UNL     1     135.493 141.725 115.483  1.00  0.00     0.296 HD
ENDBRANCH   6   8
ENDBRANCH   5   6
BRANCH   5  10
ATOM     10  N   UNL     1     139.025 141.027 114.057  1.00  0.00    -0.318 NA
ATOM     11  H   UNL     1     139.750 141.698 114.392  1.00  0.00     0.119 HD
ATOM     12  H   UNL     1     138.430 141.382 113.304  1.00  0.00     0.119 HD
ENDBRANCH   5  10
ENDBRANCH   1   5
TORSDOF 6
ENDMDL
MODEL 8
REMARK VINA RESULT:    -2.845      1.967      2.071
REMARK INTER + INTRA:          -3.859
REMARK INTER:                  -3.937
REMARK INTRA:                   0.079
REMARK UNBOUND:                -0.182
REMARK SMILES CSCC[C@H](N)C(=O)O
REMARK SMILES IDX 4 1 3 2 2 3 1 4 5 5 7 6 8 7 9 8 6 10
REMARK H PARENT 9 9 6 11 6 12
ROOT
ATOM      1  C   UNL     1     137.667 133.263 123.381  1.00  0.00     0.041 C 
ENDROOT
BRANCH   1   2
ATOM      2  C   UNL     1     136.176 133.287 123.531  1.00  0.00     0.071 C 
BRANCH   2   3
ATOM      3  S   UNL     1     135.354 132.244 122.303  1.00  0.00    -0.165 SA
ATOM      4  C   UNL     1     136.580 131.213 121.479  1.00  0.00     0.085 C 
ENDBRANCH   2   3
ENDBRANCH   1   2
BRANCH   1   5
ATOM      5  C   UNL     1     138.419 132.908 124.625  1.00  0.00     0.162 C 
BRANCH   5   6
ATOM      6  C   UNL     1     137.632 132.145 125.595  1.00  0.00     0.320 C 
ATOM      7  O   UNL     1     136.964 132.792 126.459  1.00  0.00    -0.251 OA
BRANCH   6   8
ATOM      8  O   UNL     1     137.556 130.764 125.648  1.00  0.00    -0.480 OA
ATOM      9  H   UNL     1     137.813 130.214 124.822  1.00  0.00     0.296 HD
ENDBRANCH   6   8
ENDBRANCH   5   6
BRANCH   5  10
ATOM     10  N   UNL     1     139.675 132.254 124.394  1.00  0.00    -0.318 NA
ATOM     11  H   UNL     1     140.146 132.521 123.502  1.00  0.00     0.119 HD
ATOM     12  H   UNL     1     139.707 131.254 124.611  1.00  0.00     0.119 HD
ENDBRANCH   5  10
ENDBRANCH   1   5
TORSDOF 6
ENDMDL
MODEL 9
REMARK VINA RESULT:    -2.708     10.173     10.977
REMARK INTER + INTRA:          -3.682
REMARK INTER:                  -3.564
REMARK INTRA:                  -0.118
REMARK UNBOUND:                -0.182
REMARK SMILES CSCC[C@H](N)C(=O)O
REMARK SMILES IDX 4 1 3 2 2 3 1 4 5 5 7 6 8 7 9 8 6 10
REMARK H PARENT 9 9 6 11 6 12
ROOT
ATOM      1  C   UNL     1     137.712 139.443 116.218  1.00  0.00     0.041 C 
ENDROOT
BRANCH   1   2
ATOM      2  C   UNL     1     137.570 140.611 115.289  1.00  0.00     0.071 C 
BRANCH   2   3
ATOM      3  S   UNL     1     136.886 142.062 116.125  1.00  0.00    -0.165 SA
ATOM      4  C   UNL     1     135.304 142.490 115.380  1.00  0.00     0.085 C 
ENDBRANCH   2   3
ENDBRANCH   1   2
BRANCH   1   5
ATOM      5  C   UNL     1     139.041 139.336 116.895  1.00  0.00     0.162 C 
BRANCH   5   6
ATOM      6  C   UNL     1     138.978 139.484 118.350  1.00  0.00     0.320 C 
ATOM      7  O   UNL     1     139.257 140.618 118.845  1.00  0.00    -0.251 OA
BRANCH   6   8
ATOM      8  O   UNL     1     138.636 138.478 119.237  1.00  0.00    -0.480 OA
ATOM      9  H   UNL     1     139.151 137.592 119.216  1.00  0.00     0.296 HD
ENDBRANCH   6   8
ENDBRANCH   5   6
BRANCH   5  10
ATOM     10  N   UNL     1     139.789 138.159 116.556  1.00  0.00    -0.318 NA
ATOM     11  H   UNL     1     140.448 137.835 117.297  1.00  0.00     0.119 HD
ATOM     12  H   UNL     1     140.167 138.127 115.605  1.00  0.00     0.119 HD
ENDBRANCH   5  10
ENDBRANCH   1   5
TORSDOF 6
ENDMDL
