MODEL 1
REMARK VINA RESULT:    -4.652      0.000      0.000
REMARK INTER + INTRA:          -5.196
REMARK INTER:                  -5.196
REMARK INTRA:                   0.000
REMARK UNBOUND:                 0.000
REMARK SMILES NCC(=O)O
REMARK SMILES IDX 3 1 4 2 2 3 1 4 5 7
REMARK H PARENT 1 5 1 6 5 8
ROOT
ATOM      1  C   UNL     1     138.489 132.809 124.916  1.00  0.00     0.317 C 
ATOM      2  O   UNL     1     137.681 133.354 125.693  1.00  0.00    -0.251 OA
ENDROOT
BRANCH   1   3
ATOM      3  C   UNL     1     138.973 131.441 125.263  1.00  0.00     0.201 C 
BRANCH   3   4
ATOM      4  N   UNL     1     140.367 131.563 125.647  1.00  0.00    -0.321 NA
ATOM      5  H   UNL     1     140.867 132.186 124.954  1.00  0.00     0.119 HD
ATOM      6  H   UNL     1     140.811 130.628 125.689  1.00  0.00     0.119 HD
ENDBRANCH   3   4
ENDBRANCH   1   3
BRANCH   1   7
ATOM      7  O   UNL     1     138.927 133.461 123.754  1.00  0.00    -0.480 OA
ATOM      8  H   UNL     1     139.931 133.700 123.729  1.00  0.00     0.296 HD
ENDBRANCH   1   7
TORSDOF 3
ENDMDL
MODEL 2
REMARK VINA RESULT:    -4.395      2.170      2.398
REMARK INTER + INTRA:          -4.908
REMARK INTER:                  -4.908
REMARK INTRA:                   0.000
REMARK UNBOUND:                 0.000
REMARK SMILES NCC(=O)O
REMARK SMILES IDX 3 1 4 2 2 3 1 4 5 7
REMARK H PARENT 1 5 1 6 5 8
ROOT
ATOM      1  C   UNL     1     139.149 132.223 124.944  1.00  0.00     0.317 C 
ATOM      2  O   UNL     1     139.249 133.001 123.975  1.00  0.00    -0.251 OA
ENDROOT
BRANCH   1   3
ATOM      3  C   UNL     1     137.781 131.796 125.355  1.00  0.00     0.201 C 
BRANCH   3   4
ATOM      4  N   UNL     1     137.105 132.966 125.883  1.00  0.00    -0.321 NA
ATOM      5  H   UNL     1     136.582 132.699 126.763  1.00  0.00     0.119 HD
ATOM      6  H   UNL     1     136.458 133.357 125.174  1.00  0.00     0.119 HD
ENDBRANCH   3   4
ENDBRANCH   1   3
BRANCH   1   7
ATOM      7  O   UNL     1     140.288 131.767 125.624  1.00  0.00    -0.480 OA
ATOM      8  H   UNL     1     140.501 132.250 126.511  1.00  0.00     0.296 HD
ENDBRANCH   1   7
TORSDOF 3
ENDMDL
MODEL 3
REMARK VINA RESULT:    -4.165      2.272      2.349
REMARK INTER + INTRA:          -4.652
REMARK INTER:                  -4.652
REMARK INTRA:                   0.000
REMARK UNBOUND:                 0.000
REMARK SMILES NCC(=O)O
REMARK SMILES IDX 3 1 4 2 2 3 1 4 5 7
REMARK H PARENT 1 5 1 6 5 8
ROOT
ATOM      1  C   UNL     1     138.428 132.574 125.063  1.00  0.00     0.317 C 
ATOM      2  O   UNL     1     137.827 133.354 125.826  1.00  0.00    -0.251 OA
ENDROOT
BRANCH   1   3
ATOM      3  C   UNL     1     137.709 132.100 123.845  1.00  0.00     0.201 C 
BRANCH   3   4
ATOM      4  N   UNL     1     137.384 133.272 123.053  1.00  0.00    -0.321 NA
ATOM      5  H   UNL     1     137.510 134.139 123.646  1.00  0.00     0.119 HD
ATOM      6  H   UNL     1     136.413 133.206 122.697  1.00  0.00     0.119 HD
ENDBRANCH   3   4
ENDBRANCH   1   3
BRANCH   1   7
ATOM      7  O   UNL     1     139.738 132.157 125.341  1.00  0.00    -0.480 OA
ATOM      8  H   UNL     1     140.163 131.526 124.643  1.00  0.00     0.296 HD
ENDBRANCH   1   7
TORSDOF 3
ENDMDL
MODEL 4
REMARK VINA RESULT:    -3.972      4.629      4.876
REMARK INTER + INTRA:          -4.437
REMARK INTER:                  -4.437
REMARK INTRA:                   0.000
REMARK UNBOUND:                 0.000
REMARK SMILES NCC(=O)O
REMARK SMILES IDX 3 1 4 2 2 3 1 4 5 7
REMARK H PARENT 1 5 1 6 5 8
ROOT
ATOM      1  C   UNL     1     135.539 133.341 122.714  1.00  0.00     0.317 C 
ATOM      2  O   UNL     1     134.915 132.728 121.827  1.00  0.00    -0.251 OA
ENDROOT
BRANCH   1   3
ATOM      3  C   UNL     1     134.786 133.759 123.932  1.00  0.00     0.201 C 
BRANCH   3   4
ATOM      4  N   UNL     1     134.417 135.151 123.753  1.00  0.00    -0.321 NA
ATOM      5  H   UNL     1     133.548 135.357 124.320  1.00  0.00     0.119 HD
ATOM      6  H   UNL     1     134.259 135.354 122.749  1.00  0.00     0.119 HD
ENDBRANCH   3   4
ENDBRANCH   1   3
BRANCH   1   7
ATOM      7  O   UNL     1     136.905 133.628 122.570  1.00  0.00    -0.480 OA
ATOM      8  H   UNL     1     137.212 134.538 122.948  1.00  0.00     0.296 HD
ENDBRANCH   1   7
TORSDOF 3
ENDMDL
MODEL 5
REMARK VINA RESULT:    -3.888      2.062      2.362
REMARK INTER + INTRA:          -4.342
REMARK INTER:                  -4.342
REMARK INTRA:                   0.000
REMARK UNBOUND:                 0.000
REMARK SMILES NCC(=O)O
REMARK SMILES IDX 3 1 4 2 2 3 1 4 5 7
REMARK H PARENT 1 5 1 6 5 8
ROOT
ATOM      1  C   UNL     1     137.949 132.420 123.818  1.00  0.00     0.317 C 
ATOM      2  O   UNL     1     138.961 133.141 123.926  1.00  0.00    -0.251 OA
ENDROOT
BRANCH   1   3
ATOM      3  C   UNL     1     136.984 132.403 124.955  1.00  0.00     0.201 C 
BRANCH   3   4
ATOM      4  N   UNL     1     137.572 133.180 126.031  1.00  0.00    -0.321 NA
ATOM      5  H   UNL     1     137.651 132.574 126.895  1.00  0.00     0.119 HD
ATOM      6  H   UNL     1     136.998 134.021 126.221  1.00  0.00     0.119 HD
ENDBRANCH   3   4
ENDBRANCH   1   3
BRANCH   1   7
ATOM      7  O   UNL     1     137.728 131.652 122.666  1.00  0.00    -0.480 OA
ATOM      8  H   UNL     1     136.839 131.832 122.174  1.00  0.00     0.296 HD
ENDBRANCH   1   7
TORSDOF 3
ENDMDL
MODEL 6
REMARK VINA RESULT:    -3.833      2.915      3.127
REMARK INTER + INTRA:          -4.281
REMARK INTER:                  -4.281
REMARK INTRA:                   0.000
REMARK UNBOUND:                 0.000
REMARK SMILES NCC(=O)O
REMARK SMILES IDX 3 1 4 2 2 3 1 4 5 7
REMARK H PARENT 1 5 1 6 5 8
ROOT
ATOM      1  C   UNL     1     137.191 132.507 125.077  1.00  0.00     0.317 C 
ATOM      2  O   UNL     1     137.714 133.312 125.872  1.00  0.00    -0.251 OA
ENDROOT
BRANCH   1   3
ATOM      3  C   UNL     1     135.821 132.816 124.574  1.00  0.00     0.201 C 
BRANCH   3   4
ATOM      4  N   UNL     1     135.370 131.663 123.818  1.00  0.00    -0.321 NA
ATOM      5  H   UNL     1     135.773 131.708 122.841  1.00  0.00     0.119 HD
ATOM      6  H   UNL     1     134.334 131.637 123.789  1.00  0.00     0.119 HD
ENDBRANCH   3   4
ENDBRANCH   1   3
BRANCH   1   7
ATOM      7  O   UNL     1     137.870 131.348 124.671  1.00  0.00    -0.480 OA
ATOM      8  H   UNL     1     138.879 131.464 124.486  1.00  0.00     0.296 HD
ENDBRANCH   1   7
TORSDOF 3
ENDMDL
MODEL 7
REMARK VINA RESULT:    -3.787      2.063      2.601
REMARK INTER + INTRA:          -4.230
REMARK INTER:                  -4.230
REMARK INTRA:                   0.000
REMARK UNBOUND:                 0.000
REMARK SMILES NCC(=O)O
REMARK SMILES IDX 3 1 4 2 2 3 1 4 5 7
REMARK H PARENT 1 5 1 6 5 8
ROOT
ATOM      1  C   UNL     1     138.046 132.751 124.805  1.00  0.00     0.317 C 
ATOM      2  O   UNL     1     139.238 132.547 124.501  1.00  0.00    -0.251 OA
ENDROOT
BRANCH   1   3
ATOM      3  C   UNL     1     136.996 132.308 123.842  1.00  0.00     0.201 C 
BRANCH   3   4
ATOM      4  N   UNL     1     137.676 131.692 122.718  1.00  0.00    -0.321 NA
ATOM      5  H   UNL     1     137.252 132.049 121.817  1.00  0.00     0.119 HD
ATOM      6  H   UNL     1     137.602 130.660 122.776  1.00  0.00     0.119 HD
ENDBRANCH   3   4
ENDBRANCH   1   3
BRANCH   1   7
ATOM      7  O   UNL     1     137.706 133.376 126.014  1.00  0.00    -0.480 OA
ATOM      8  H   UNL     1     137.104 132.827 126.647  1.00  0.00     0.296 HD
ENDBRANCH   1   7
TORSDOF 3
ENDMDL
MODEL 8
REMARK VINA RESULT:    -3.347      3.625      3.832
REMARK INTER + INTRA:          -3.739
REMARK INTER:                  -3.739
REMARK INTRA:                   0.000
REMARK UNBOUND:                 0.000
REMARK SMILES NCC(=O)O
REMARK SMILES IDX 3 1 4 2 2 3 1 4 5 7
REMARK H PARENT 1 5 1 6 5 8
ROOT
ATOM      1  C   UNL     1     136.584 133.093 123.924  1.00  0.00     0.317 C 
ATOM      2  O   UNL     1     136.449 133.133 125.162  1.00  0.00    -0.251 OA
ENDROOT
BRANCH   1   3
ATOM      3  C   UNL     1     135.359 133.239 123.086  1.00  0.00     0.201 C 
BRANCH   3   4
ATOM      4  N   UNL     1     135.247 134.642 122.729  1.00  0.00    -0.321 NA
ATOM      5  H   UNL     1     134.260 134.972 122.921  1.00  0.00     0.119 HD
ATOM      6  H   UNL     1     135.494 134.779 121.732  1.00  0.00     0.119 HD
ENDBRANCH   3   4
ENDBRANCH   1   3
BRANCH   1   7
ATOM      7  O   UNL     1     137.847 132.916 123.340  1.00  0.00    -0.480 OA
ATOM      8  H   UNL     1     138.060 131.958 123.018  1.00  0.00     0.296 HD
ENDBRANCH   1   7
TORSDOF 3
ENDMDL
MODEL 9
REMARK VINA RESULT:    -3.222     11.546     11.810
REMARK INTER + INTRA:          -3.599
REMARK INTER:                  -3.599
REMARK INTRA:                   0.000
REMARK UNBOUND:                 0.000
REMARK SMILES NCC(=O)O
REMARK SMILES IDX 3 1 4 2 2 3 1 4 5 7
REMARK H PARENT 1 5 1 6 5 8
ROOT
ATOM      1  C   UNL     1     137.550 141.049 116.411  1.00  0.00     0.317 C 
ATOM      2  O   UNL     1     138.221 142.094 116.517  1.00  0.00    -0.251 OA
ENDROOT
BRANCH   1   3
ATOM      3  C   UNL     1     138.203 139.763 116.790  1.00  0.00     0.201 C 
BRANCH   3   4
ATOM      4  N   UNL     1     138.522 139.841 118.203  1.00  0.00    -0.321 NA
ATOM      5  H   UNL     1     137.695 140.243 118.725  1.00  0.00     0.119 HD
ATOM      6  H   UNL     1     139.368 140.423 118.347  1.00  0.00     0.119 HD
ENDBRANCH   3   4
ENDBRANCH   1   3
BRANCH   1   7
ATOM      7  O   UNL     1     136.226 141.084 115.951  1.00  0.00    -0.480 OA
ATOM      8  H   UNL     1     136.109 141.252 114.939  1.00  0.00     0.296 HD
ENDBRANCH   1   7
TORSDOF 3
ENDMDL
