MODEL 1
REMARK VINA RESULT:    -5.085      0.000      0.000
REMARK INTER + INTRA:          -5.630
REMARK INTER:                  -5.531
REMARK INTRA:                  -0.099
REMARK UNBOUND:                -0.099
REMARK SMILES CN1CCC[C@H]1C(=O)O
REMARK SMILES IDX 7 1 8 2 6 3 2 4 3 5 4 6 5 7 1 8 9 9
REMARK H PARENT 9 10
ROOT
ATOM      1  C   UNL     1     137.729 133.085 124.653  1.00  0.00     0.320 C 
ATOM      2  O   UNL     1     137.742 133.431 125.872  1.00  0.00    -0.251 OA
ENDROOT
BRANCH   1   3
ATOM      3  C   UNL     1     136.529 132.465 124.047  1.00  0.00     0.167 C 
ATOM      4  N   UNL     1     135.847 133.436 123.218  1.00  0.00    -0.294 NA
ATOM      5  C   UNL     1     135.220 132.558 122.233  1.00  0.00     0.085 C 
ATOM      6  C   UNL     1     136.483 131.898 121.719  1.00  0.00     0.018 C 
ATOM      7  C   UNL     1     137.050 131.417 123.055  1.00  0.00     0.032 C 
ATOM      8  C   UNL     1     134.886 134.218 123.942  1.00  0.00     0.106 C 
ENDBRANCH   1   3
BRANCH   1   9
ATOM      9  O   UNL     1     138.901 133.326 123.943  1.00  0.00    -0.480 OA
ATOM     10  H   UNL     1     138.972 133.109 122.939  1.00  0.00     0.296 HD
ENDBRANCH   1   9
TORSDOF 2
ENDMDL
MODEL 2
REMARK VINA RESULT:    -4.984      1.361      2.394
REMARK INTER + INTRA:          -5.521
REMARK INTER:                  -5.402
REMARK INTRA:                  -0.118
REMARK UNBOUND:                -0.099
REMARK SMILES CN1CCC[C@H]1C(=O)O
REMARK SMILES IDX 7 1 8 2 6 3 2 4 3 5 4 6 5 7 1 8 9 9
REMARK H PARENT 9 10
ROOT
ATOM      1  C   UNL     1     138.004 132.170 124.470  1.00  0.00     0.320 C 
ATOM      2  O   UNL     1     139.186 132.625 124.491  1.00  0.00    -0.251 OA
ENDROOT
BRANCH   1   3
ATOM      3  C   UNL     1     136.968 132.774 123.601  1.00  0.00     0.167 C 
ATOM      4  N   UNL     1     136.350 131.743 122.794  1.00  0.00    -0.294 NA
ATOM      5  C   UNL     1     135.020 132.316 122.598  1.00  0.00     0.085 C 
ATOM      6  C   UNL     1     134.639 132.446 124.058  1.00  0.00     0.018 C 
ATOM      7  C   UNL     1     135.850 133.245 124.540  1.00  0.00     0.032 C 
ATOM      8  C   UNL     1     137.034 131.513 121.554  1.00  0.00     0.106 C 
ENDBRANCH   1   3
BRANCH   1   9
ATOM      9  O   UNL     1     137.757 131.085 125.305  1.00  0.00    -0.480 OA
ATOM     10  H   UNL     1     137.071 131.145 126.070  1.00  0.00     0.296 HD
ENDBRANCH   1   9
TORSDOF 2
ENDMDL
MODEL 3
REMARK VINA RESULT:    -4.662      2.121      3.156
REMARK INTER + INTRA:          -5.170
REMARK INTER:                  -5.178
REMARK INTRA:                   0.008
REMARK UNBOUND:                -0.099
REMARK SMILES CN1CCC[C@H]1C(=O)O
REMARK SMILES IDX 7 1 8 2 6 3 2 4 3 5 4 6 5 7 1 8 9 9
REMARK H PARENT 9 10
ROOT
ATOM      1  C   UNL     1     135.119 133.804 123.569  1.00  0.00     0.320 C 
ATOM      2  O   UNL     1     134.041 134.090 124.170  1.00  0.00    -0.251 OA
ENDROOT
BRANCH   1   3
ATOM      3  C   UNL     1     135.884 132.583 123.911  1.00  0.00     0.167 C 
ATOM      4  N   UNL     1     137.024 132.461 123.027  1.00  0.00    -0.294 NA
ATOM      5  C   UNL     1     137.955 131.734 123.887  1.00  0.00     0.085 C 
ATOM      6  C   UNL     1     138.000 132.733 125.026  1.00  0.00     0.018 C 
ATOM      7  C   UNL     1     136.498 132.842 125.293  1.00  0.00     0.032 C 
ATOM      8  C   UNL     1     136.726 131.748 121.819  1.00  0.00     0.106 C 
ENDBRANCH   1   3
BRANCH   1   9
ATOM      9  O   UNL     1     135.522 134.703 122.587  1.00  0.00    -0.480 OA
ATOM     10  H   UNL     1     136.034 134.388 121.752  1.00  0.00     0.296 HD
ENDBRANCH   1   9
TORSDOF 2
ENDMDL
MODEL 4
REMARK VINA RESULT:    -4.389      2.283      2.927
REMARK INTER + INTRA:          -4.874
REMARK INTER:                  -4.811
REMARK INTRA:                  -0.063
REMARK UNBOUND:                -0.099
REMARK SMILES CN1CCC[C@H]1C(=O)O
REMARK SMILES IDX 7 1 8 2 6 3 2 4 3 5 4 6 5 7 1 8 9 9
REMARK H PARENT 9 10
ROOT
ATOM      1  C   UNL     1     134.784 133.915 123.956  1.00  0.00     0.320 C 
ATOM      2  O   UNL     1     134.017 133.055 124.484  1.00  0.00    -0.251 OA
ENDROOT
BRANCH   1   3
ATOM      3  C   UNL     1     136.137 133.544 123.483  1.00  0.00     0.167 C 
ATOM      4  N   UNL     1     136.570 132.336 124.153  1.00  0.00    -0.294 NA
ATOM      5  C   UNL     1     137.462 131.772 123.142  1.00  0.00     0.085 C 
ATOM      6  C   UNL     1     136.454 131.676 122.015  1.00  0.00     0.018 C 
ATOM      7  C   UNL     1     135.972 133.127 122.015  1.00  0.00     0.032 C 
ATOM      8  C   UNL     1     137.244 132.592 125.394  1.00  0.00     0.106 C 
ENDBRANCH   1   3
BRANCH   1   9
ATOM      9  O   UNL     1     134.270 135.204 123.856  1.00  0.00    -0.480 OA
ATOM     10  H   UNL     1     134.675 135.983 124.392  1.00  0.00     0.296 HD
ENDBRANCH   1   9
TORSDOF 2
ENDMDL
MODEL 5
REMARK VINA RESULT:    -3.926      2.353      3.190
REMARK INTER + INTRA:          -4.369
REMARK INTER:                  -4.453
REMARK INTRA:                   0.084
REMARK UNBOUND:                -0.099
REMARK SMILES CN1CCC[C@H]1C(=O)O
REMARK SMILES IDX 7 1 8 2 6 3 2 4 3 5 4 6 5 7 1 8 9 9
REMARK H PARENT 9 10
ROOT
ATOM      1  C   UNL     1     136.714 131.623 122.096  1.00  0.00     0.320 C 
ATOM      2  O   UNL     1     137.536 131.488 121.142  1.00  0.00    -0.251 OA
ENDROOT
BRANCH   1   3
ATOM      3  C   UNL     1     136.984 132.560 123.210  1.00  0.00     0.167 C 
ATOM      4  N   UNL     1     136.023 132.343 124.271  1.00  0.00    -0.294 NA
ATOM      5  C   UNL     1     136.806 132.756 125.433  1.00  0.00     0.085 C 
ATOM      6  C   UNL     1     137.955 131.783 125.259  1.00  0.00     0.018 C 
ATOM      7  C   UNL     1     138.325 132.123 123.815  1.00  0.00     0.032 C 
ATOM      8  C   UNL     1     134.827 133.119 124.115  1.00  0.00     0.106 C 
ENDBRANCH   1   3
BRANCH   1   9
ATOM      9  O   UNL     1     135.565 130.843 122.021  1.00  0.00    -0.480 OA
ATOM     10  H   UNL     1     134.628 131.260 122.116  1.00  0.00     0.296 HD
ENDBRANCH   1   9
TORSDOF 2
ENDMDL
MODEL 6
REMARK VINA RESULT:    -2.732      1.833      3.010
REMARK INTER + INTRA:          -3.070
REMARK INTER:                  -2.954
REMARK INTRA:                  -0.117
REMARK UNBOUND:                -0.099
REMARK SMILES CN1CCC[C@H]1C(=O)O
REMARK SMILES IDX 7 1 8 2 6 3 2 4 3 5 4 6 5 7 1 8 9 9
REMARK H PARENT 9 10
ROOT
ATOM      1  C   UNL     1     136.868 132.020 122.167  1.00  0.00     0.320 C 
ATOM      2  O   UNL     1     137.108 131.211 121.222  1.00  0.00    -0.251 OA
ENDROOT
BRANCH   1   3
ATOM      3  C   UNL     1     135.506 132.561 122.382  1.00  0.00     0.167 C 
ATOM      4  N   UNL     1     135.073 132.263 123.731  1.00  0.00    -0.294 NA
ATOM      5  C   UNL     1     134.165 133.381 123.976  1.00  0.00     0.085 C 
ATOM      6  C   UNL     1     135.157 134.502 123.744  1.00  0.00     0.018 C 
ATOM      7  C   UNL     1     135.648 134.088 122.356  1.00  0.00     0.032 C 
ATOM      8  C   UNL     1     134.417 130.992 123.844  1.00  0.00     0.106 C 
ENDBRANCH   1   3
BRANCH   1   9
ATOM      9  O   UNL     1     137.954 132.355 122.969  1.00  0.00    -0.480 OA
ATOM     10  H   UNL     1     138.618 133.090 122.690  1.00  0.00     0.296 HD
ENDBRANCH   1   9
TORSDOF 2
ENDMDL
