MODEL 1
REMARK VINA RESULT:    -5.393      0.000      0.000
REMARK INTER + INTRA:          -5.598
REMARK INTER:                  -5.866
REMARK INTRA:                   0.268
REMARK UNBOUND:                 0.268
REMARK SMILES O=C(O)[C@@H]1CCCN1
REMARK SMILES IDX 2 1 1 2 4 3 6 4 5 5 7 6 8 7 3 9
REMARK H PARENT 8 8 3 10
ROOT
ATOM      1  C   UNL     1     136.981 132.482 124.932  1.00  0.00     0.320 C 
ATOM      2  O   UNL     1     137.581 133.380 125.593  1.00  0.00    -0.251 OA
ENDROOT
BRANCH   1   3
ATOM      3  C   UNL     1     135.547 132.698 124.582  1.00  0.00     0.164 C 
ATOM      4  C   UNL     1     136.087 132.492 122.351  1.00  0.00     0.017 C 
ATOM      5  C   UNL     1     135.225 131.808 123.397  1.00  0.00     0.032 C 
ATOM      6  C   UNL     1     135.770 133.944 122.625  1.00  0.00     0.082 C 
ATOM      7  N   UNL     1     135.422 134.036 124.033  1.00  0.00    -0.304 NA
ATOM      8  H   UNL     1     136.092 134.669 124.524  1.00  0.00     0.123 HD
ENDBRANCH   1   3
BRANCH   1   9
ATOM      9  O   UNL     1     137.652 131.320 124.541  1.00  0.00    -0.480 OA
ATOM     10  H   UNL     1     137.282 130.796 123.765  1.00  0.00     0.296 HD
ENDBRANCH   1   9
TORSDOF 2
ENDMDL
MODEL 2
REMARK VINA RESULT:    -5.272      2.288      2.961
REMARK INTER + INTRA:          -5.466
REMARK INTER:                  -5.591
REMARK INTRA:                   0.125
REMARK UNBOUND:                 0.268
REMARK SMILES O=C(O)[C@@H]1CCCN1
REMARK SMILES IDX 2 1 1 2 4 3 6 4 5 5 7 6 8 7 3 9
REMARK H PARENT 8 8 3 10
ROOT
ATOM      1  C   UNL     1     135.927 133.880 122.622  1.00  0.00     0.320 C 
ATOM      2  O   UNL     1     134.939 134.557 123.035  1.00  0.00    -0.251 OA
ENDROOT
BRANCH   1   3
ATOM      3  C   UNL     1     135.874 132.395 122.753  1.00  0.00     0.164 C 
ATOM      4  C   UNL     1     136.426 132.598 124.981  1.00  0.00     0.017 C 
ATOM      5  C   UNL     1     135.294 132.075 124.117  1.00  0.00     0.032 C 
ATOM      6  C   UNL     1     137.624 132.039 124.250  1.00  0.00     0.082 C 
ATOM      7  N   UNL     1     137.240 131.911 122.854  1.00  0.00    -0.304 NA
ATOM      8  H   UNL     1     137.857 132.507 122.260  1.00  0.00     0.123 HD
ENDBRANCH   1   3
BRANCH   1   9
ATOM      9  O   UNL     1     137.036 134.515 122.058  1.00  0.00    -0.480 OA
ATOM     10  H   UNL     1     137.370 135.362 122.488  1.00  0.00     0.296 HD
ENDBRANCH   1   9
TORSDOF 2
ENDMDL
MODEL 3
REMARK VINA RESULT:    -5.108      1.587      2.067
REMARK INTER + INTRA:          -5.288
REMARK INTER:                  -5.420
REMARK INTRA:                   0.132
REMARK UNBOUND:                 0.268
REMARK SMILES O=C(O)[C@@H]1CCCN1
REMARK SMILES IDX 2 1 1 2 4 3 6 4 5 5 7 6 8 7 3 9
REMARK H PARENT 8 8 3 10
ROOT
ATOM      1  C   UNL     1     137.194 132.375 124.422  1.00  0.00     0.320 C 
ATOM      2  O   UNL     1     136.608 133.184 125.201  1.00  0.00    -0.251 OA
ENDROOT
BRANCH   1   3
ATOM      3  C   UNL     1     137.448 132.804 123.015  1.00  0.00     0.164 C 
ATOM      4  C   UNL     1     135.235 132.399 122.519  1.00  0.00     0.017 C 
ATOM      5  C   UNL     1     136.221 133.553 122.535  1.00  0.00     0.032 C 
ATOM      6  C   UNL     1     136.067 131.322 121.863  1.00  0.00     0.082 C 
ATOM      7  N   UNL     1     137.455 131.613 122.184  1.00  0.00    -0.304 NA
ATOM      8  H   UNL     1     137.868 130.822 122.726  1.00  0.00     0.123 HD
ENDBRANCH   1   3
BRANCH   1   9
ATOM      9  O   UNL     1     137.591 131.114 124.873  1.00  0.00    -0.480 OA
ATOM     10  H   UNL     1     137.095 130.710 125.651  1.00  0.00     0.296 HD
ENDBRANCH   1   9
TORSDOF 2
ENDMDL
MODEL 4
REMARK VINA RESULT:    -4.832      2.011      2.672
REMARK INTER + INTRA:          -4.987
REMARK INTER:                  -5.493
REMARK INTRA:                   0.506
REMARK UNBOUND:                 0.268
REMARK SMILES O=C(O)[C@@H]1CCCN1
REMARK SMILES IDX 2 1 1 2 4 3 6 4 5 5 7 6 8 7 3 9
REMARK H PARENT 8 8 3 10
ROOT
ATOM      1  C   UNL     1     136.222 131.999 122.138  1.00  0.00     0.320 C 
ATOM      2  O   UNL     1     135.184 132.158 121.430  1.00  0.00    -0.251 OA
ENDROOT
BRANCH   1   3
ATOM      3  C   UNL     1     136.643 133.111 123.040  1.00  0.00     0.164 C 
ATOM      4  C   UNL     1     134.915 132.575 124.466  1.00  0.00     0.017 C 
ATOM      5  C   UNL     1     136.430 132.650 124.468  1.00  0.00     0.032 C 
ATOM      6  C   UNL     1     134.566 133.871 123.774  1.00  0.00     0.082 C 
ATOM      7  N   UNL     1     135.679 134.187 122.894  1.00  0.00    -0.304 NA
ATOM      8  H   UNL     1     135.351 134.219 121.903  1.00  0.00     0.123 HD
ENDBRANCH   1   3
BRANCH   1   9
ATOM      9  O   UNL     1     136.951 130.809 122.074  1.00  0.00    -0.480 OA
ATOM     10  H   UNL     1     137.504 130.634 121.251  1.00  0.00     0.296 HD
ENDBRANCH   1   9
TORSDOF 2
ENDMDL
MODEL 5
REMARK VINA RESULT:    -4.009      1.987      2.826
REMARK INTER + INTRA:          -4.092
REMARK INTER:                  -4.262
REMARK INTRA:                   0.170
REMARK UNBOUND:                 0.268
REMARK SMILES O=C(O)[C@@H]1CCCN1
REMARK SMILES IDX 2 1 1 2 4 3 6 4 5 5 7 6 8 7 3 9
REMARK H PARENT 8 8 3 10
ROOT
ATOM      1  C   UNL     1     135.733 131.871 123.137  1.00  0.00     0.320 C 
ATOM      2  O   UNL     1     134.658 131.727 123.792  1.00  0.00    -0.251 OA
ENDROOT
BRANCH   1   3
ATOM      3  C   UNL     1     136.621 133.021 123.476  1.00  0.00     0.164 C 
ATOM      4  C   UNL     1     137.837 131.641 124.864  1.00  0.00     0.017 C 
ATOM      5  C   UNL     1     138.032 132.485 123.618  1.00  0.00     0.032 C 
ATOM      6  C   UNL     1     137.037 132.588 125.728  1.00  0.00     0.082 C 
ATOM      7  N   UNL     1     136.294 133.451 124.824  1.00  0.00    -0.304 NA
ATOM      8  H   UNL     1     135.268 133.330 124.980  1.00  0.00     0.123 HD
ENDBRANCH   1   3
BRANCH   1   9
ATOM      9  O   UNL     1     136.074 130.971 122.125  1.00  0.00    -0.480 OA
ATOM     10  H   UNL     1     135.450 130.879 121.340  1.00  0.00     0.296 HD
ENDBRANCH   1   9
TORSDOF 2
ENDMDL
MODEL 6
REMARK VINA RESULT:    -3.210     10.736     11.774
REMARK INTER + INTRA:          -3.224
REMARK INTER:                  -3.354
REMARK INTRA:                   0.131
REMARK UNBOUND:                 0.268
REMARK SMILES O=C(O)[C@@H]1CCCN1
REMARK SMILES IDX 2 1 1 2 4 3 6 4 5 5 7 6 8 7 3 9
REMARK H PARENT 8 8 3 10
ROOT
ATOM      1  C   UNL     1     138.690 140.256 114.710  1.00  0.00     0.320 C 
ATOM      2  O   UNL     1     139.633 139.411 114.774  1.00  0.00    -0.251 OA
ENDROOT
BRANCH   1   3
ATOM      3  C   UNL     1     137.498 140.055 115.585  1.00  0.00     0.164 C 
ATOM      4  C   UNL     1     138.274 141.719 116.979  1.00  0.00     0.017 C 
ATOM      5  C   UNL     1     137.073 141.416 116.100  1.00  0.00     0.032 C 
ATOM      6  C   UNL     1     138.451 140.395 117.685  1.00  0.00     0.082 C 
ATOM      7  N   UNL     1     137.942 139.371 116.787  1.00  0.00    -0.304 NA
ATOM      8  H   UNL     1     138.706 138.705 116.537  1.00  0.00     0.123 HD
ENDBRANCH   1   3
BRANCH   1   9
ATOM      9  O   UNL     1     138.772 141.347 113.841  1.00  0.00    -0.480 OA
ATOM     10  H   UNL     1     139.099 142.224 114.210  1.00  0.00     0.296 HD
ENDBRANCH   1   9
TORSDOF 2
ENDMDL
MODEL 7
REMARK VINA RESULT:    -3.132      9.861     10.893
REMARK INTER + INTRA:          -3.139
REMARK INTER:                  -3.449
REMARK INTRA:                   0.310
REMARK UNBOUND:                 0.268
REMARK SMILES O=C(O)[C@@H]1CCCN1
REMARK SMILES IDX 2 1 1 2 4 3 6 4 5 5 7 6 8 7 3 9
REMARK H PARENT 8 8 3 10
ROOT
ATOM      1  C   UNL     1     138.572 139.200 117.000  1.00  0.00     0.320 C 
ATOM      2  O   UNL     1     139.625 138.516 116.835  1.00  0.00    -0.251 OA
ENDROOT
BRANCH   1   3
ATOM      3  C   UNL     1     137.718 139.486 115.810  1.00  0.00     0.164 C 
ATOM      4  C   UNL     1     138.542 141.637 115.767  1.00  0.00     0.017 C 
ATOM      5  C   UNL     1     138.504 140.400 114.890  1.00  0.00     0.032 C 
ATOM      6  C   UNL     1     137.110 141.693 116.244  1.00  0.00     0.082 C 
ATOM      7  N   UNL     1     136.617 140.326 116.247  1.00  0.00    -0.304 NA
ATOM      8  H   UNL     1     136.342 140.049 117.215  1.00  0.00     0.123 HD
ENDBRANCH   1   3
BRANCH   1   9
ATOM      9  O   UNL     1     138.223 139.672 118.267  1.00  0.00    -0.480 OA
ATOM     10  H   UNL     1     138.697 139.285 119.066  1.00  0.00     0.296 HD
ENDBRANCH   1   9
TORSDOF 2
ENDMDL
MODEL 8
REMARK VINA RESULT:    -3.012      2.557      3.147
REMARK INTER + INTRA:          -3.008
REMARK INTER:                  -3.314
REMARK INTRA:                   0.306
REMARK UNBOUND:                 0.268
REMARK SMILES O=C(O)[C@@H]1CCCN1
REMARK SMILES IDX 2 1 1 2 4 3 6 4 5 5 7 6 8 7 3 9
REMARK H PARENT 8 8 3 10
ROOT
ATOM      1  C   UNL     1     135.298 133.616 122.721  1.00  0.00     0.320 C 
ATOM      2  O   UNL     1     134.234 133.139 122.224  1.00  0.00    -0.251 OA
ENDROOT
BRANCH   1   3
ATOM      3  C   UNL     1     136.102 132.754 123.635  1.00  0.00     0.164 C 
ATOM      4  C   UNL     1     137.124 131.807 121.799  1.00  0.00     0.017 C 
ATOM      5  C   UNL     1     137.487 132.614 123.033  1.00  0.00     0.032 C 
ATOM      6  C   UNL     1     136.186 130.783 122.394  1.00  0.00     0.082 C 
ATOM      7  N   UNL     1     135.569 131.406 123.554  1.00  0.00    -0.304 NA
ATOM      8  H   UNL     1     134.535 131.456 123.422  1.00  0.00     0.123 HD
ENDBRANCH   1   3
BRANCH   1   9
ATOM      9  O   UNL     1     135.703 134.918 122.416  1.00  0.00    -0.480 OA
ATOM     10  H   UNL     1     134.991 135.607 122.236  1.00  0.00     0.296 HD
ENDBRANCH   1   9
TORSDOF 2
ENDMDL
MODEL 9
REMARK VINA RESULT:    -2.855     10.529     11.367
REMARK INTER + INTRA:          -2.837
REMARK INTER:                  -2.970
REMARK INTRA:                   0.133
REMARK UNBOUND:                 0.268
REMARK SMILES O=C(O)[C@@H]1CCCN1
REMARK SMILES IDX 2 1 1 2 4 3 6 4 5 5 7 6 8 7 3 9
REMARK H PARENT 8 8 3 10
ROOT
ATOM      1  C   UNL     1     138.227 141.296 117.200  1.00  0.00     0.320 C 
ATOM      2  O   UNL     1     138.676 142.457 116.965  1.00  0.00    -0.251 OA
ENDROOT
BRANCH   1   3
ATOM      3  C   UNL     1     137.404 140.627 116.150  1.00  0.00     0.164 C 
ATOM      4  C   UNL     1     139.221 139.324 115.592  1.00  0.00     0.017 C 
ATOM      5  C   UNL     1     137.805 139.165 116.115  1.00  0.00     0.032 C 
ATOM      6  C   UNL     1     139.005 140.327 114.484  1.00  0.00     0.082 C 
ATOM      7  N   UNL     1     137.847 141.122 114.859  1.00  0.00    -0.304 NA
ATOM      8  H   UNL     1     138.121 142.126 114.955  1.00  0.00     0.123 HD
ENDBRANCH   1   3
BRANCH   1   9
ATOM      9  O   UNL     1     138.501 140.661 118.414  1.00  0.00    -0.480 OA
ATOM     10  H   UNL     1     138.169 139.720 118.544  1.00  0.00     0.296 HD
ENDBRANCH   1   9
TORSDOF 2
ENDMDL
