MODEL 1
REMARK VINA RESULT:   -13.250      0.000      0.000
REMARK INTER + INTRA:         -19.115
REMARK INTER:                 -18.673
REMARK INTRA:                  -0.442
REMARK UNBOUND:                -0.442
REMARK SMILES Cc1ccc(NC(=O)c2ccc(CN3CC[NH+](C)CC3)cc2)cc1Nc1nccc(-c2cccnc2)n1
REMARK SMILES IDX 6 1 7 2 8 3 5 5 24 6 2 7 23 8 3 9 4 10 1 11 25 12 26 14
REMARK SMILES IDX 30 15 29 16 37 17 28 18 27 19 31 20 33 21 32 22 34 23 35 24
REMARK SMILES IDX 36 25 9 26 10 27 22 28 11 29 21 30 12 31 13 32 14 33 15 34
REMARK SMILES IDX 20 35 16 36 19 37 17 38 18 39
REMARK H PARENT 6 4 25 13 17 40
ROOT
ATOM      1  N   UNL     1      16.711  51.910  14.855  1.00  0.00    -0.322 N 
ATOM      2  C   UNL     1      15.688  51.715  15.768  1.00  0.00     0.255 C 
ATOM      3  O   UNL     1      14.714  52.445  15.880  1.00  0.00    -0.269 OA
ATOM      4  H   UNL     1      17.559  51.342  14.998  1.00  0.00     0.170 HD
ENDROOT
BRANCH   1   5
ATOM      5  C   UNL     1      16.735  52.810  13.729  1.00  0.00     0.043 A 
ATOM      6  C   UNL     1      15.810  54.700  12.374  1.00  0.00     0.046 A 
ATOM      7  C   UNL     1      16.896  54.551  11.397  1.00  0.00    -0.027 A 
ATOM      8  C   UNL     1      15.740  53.847  13.505  1.00  0.00     0.052 A 
ATOM      9  C   UNL     1      17.876  53.527  11.624  1.00  0.00     0.008 A 
ATOM     10  C   UNL     1      17.790  52.670  12.781  1.00  0.00     0.026 A 
ATOM     11  C   UNL     1      17.034  55.436  10.137  1.00  0.00     0.046 C 
BRANCH   6  12
ATOM     12  N   UNL     1      14.828  55.679  12.209  1.00  0.00    -0.324 N 
ATOM     13  H   UNL     1      13.916  55.423  11.805  1.00  0.00     0.170 HD
BRANCH  12  14
ATOM     14  C   UNL     1      15.068  56.993  12.582  1.00  0.00     0.227 A 
ATOM     15  C   UNL     1      14.230  59.216  12.754  1.00  0.00     0.077 A 
ATOM     16  C   UNL     1      15.478  59.670  13.295  1.00  0.00     0.049 A 
ATOM     17  N   UNL     1      14.072  57.889  12.420  1.00  0.00    -0.213 NA
ATOM     18  C   UNL     1      16.503  58.711  13.456  1.00  0.00     0.117 A 
ATOM     19  N   UNL     1      16.284  57.398  13.099  1.00  0.00    -0.221 NA
BRANCH  15  20
ATOM     20  C   UNL     1      13.052  60.110  12.522  1.00  0.00     0.019 A 
ATOM     21  C   UNL     1      11.771  62.256  12.867  1.00  0.00     0.021 A 
ATOM     22  C   UNL     1      12.929  61.431  13.125  1.00  0.00     0.013 A 
ATOM     23  C   UNL     1      10.743  61.738  12.003  1.00  0.00     0.111 A 
ATOM     24  N   UNL     1      10.873  60.465  11.427  1.00  0.00    -0.264 NA
ATOM     25  C   UNL     1      11.977  59.650  11.656  1.00  0.00     0.121 A 
ENDBRANCH  15  20
ENDBRANCH  12  14
ENDBRANCH   6  12
ENDBRANCH   1   5
BRANCH   2  26
ATOM     26  C   UNL     1      15.764  50.550  16.701  1.00  0.00     0.040 A 
ATOM     27  C   UNL     1      17.010  49.800  16.879  1.00  0.00     0.014 A 
ATOM     28  C   UNL     1      14.576  50.156  17.428  1.00  0.00     0.014 A 
ATOM     29  C   UNL     1      17.052  48.669  17.772  1.00  0.00     0.006 A 
ATOM     30  C   UNL     1      14.621  49.047  18.303  1.00  0.00     0.006 A 
ATOM     31  C   UNL     1      15.842  48.282  18.495  1.00  0.00    -0.034 A 
BRANCH  31  32
ATOM     32  C   UNL     1      15.790  47.077  19.452  1.00  0.00     0.120 C 
BRANCH  32  33
ATOM     33  N   UNL     1      17.053  46.709  20.159  1.00  0.00    -0.288 NA
ATOM     34  C   UNL     1      17.413  47.759  21.182  1.00  0.00     0.146 C 
ATOM     35  C   UNL     1      16.958  45.335  20.827  1.00  0.00     0.146 C 
ATOM     36  C   UNL     1      18.737  47.405  21.916  1.00  0.00     0.277 C 
ATOM     37  C   UNL     1      18.296  44.956  21.543  1.00  0.00     0.277 C 
ATOM     38  N   UNL     1      18.643  46.035  22.571  1.00  0.00    -0.335 N 
ATOM     39  C   UNL     1      19.870  45.653  23.286  1.00  0.00     0.332 C 
ATOM     40  H   UNL     1      17.888  46.107  23.267  1.00  0.00     0.347 HD
ENDBRANCH  32  33
ENDBRANCH  31  32
ENDBRANCH   2  26
TORSDOF 7
ENDMDL
MODEL 2
REMARK VINA RESULT:   -11.337      1.050      1.585
REMARK INTER + INTRA:         -16.419
REMARK INTER:                 -15.756
REMARK INTRA:                  -0.663
REMARK UNBOUND:                -0.442
REMARK SMILES Cc1ccc(NC(=O)c2ccc(CN3CC[NH+](C)CC3)cc2)cc1Nc1nccc(-c2cccnc2)n1
REMARK SMILES IDX 6 1 7 2 8 3 5 5 24 6 2 7 23 8 3 9 4 10 1 11 25 12 26 14
REMARK SMILES IDX 30 15 29 16 37 17 28 18 27 19 31 20 33 21 32 22 34 23 35 24
REMARK SMILES IDX 36 25 9 26 10 27 22 28 11 29 21 30 12 31 13 32 14 33 15 34
REMARK SMILES IDX 20 35 16 36 19 37 17 38 18 39
REMARK H PARENT 6 4 25 13 17 40
ROOT
ATOM      1  N   UNL     1      16.803  52.350  14.826  1.00  0.00    -0.322 N 
ATOM      2  C   UNL     1      15.742  52.064  15.670  1.00  0.00     0.255 C 
ATOM      3  O   UNL     1      14.739  52.754  15.777  1.00  0.00    -0.269 OA
ATOM      4  H   UNL     1      17.662  51.802  14.978  1.00  0.00     0.170 HD
ENDROOT
BRANCH   1   5
ATOM      5  C   UNL     1      16.853  53.322  13.762  1.00  0.00     0.043 A 
ATOM      6  C   UNL     1      16.398  55.585  12.796  1.00  0.00     0.046 A 
ATOM      7  C   UNL     1      17.003  55.179  11.522  1.00  0.00    -0.027 A 
ATOM      8  C   UNL     1      16.329  54.674  13.880  1.00  0.00     0.052 A 
ATOM      9  C   UNL     1      17.520  53.845  11.411  1.00  0.00     0.008 A 
ATOM     10  C   UNL     1      17.443  52.932  12.525  1.00  0.00     0.026 A 
ATOM     11  C   UNL     1      17.107  56.113  10.294  1.00  0.00     0.046 C 
BRANCH   6  12
ATOM     12  N   UNL     1      15.879  56.871  12.965  1.00  0.00    -0.324 N 
ATOM     13  H   UNL     1      16.453  57.596  13.418  1.00  0.00     0.170 HD
BRANCH  12  14
ATOM     14  C   UNL     1      14.600  57.181  12.530  1.00  0.00     0.227 A 
ATOM     15  C   UNL     1      12.955  58.867  12.170  1.00  0.00     0.077 A 
ATOM     16  C   UNL     1      12.025  57.889  11.686  1.00  0.00     0.049 A 
ATOM     17  N   UNL     1      14.212  58.473  12.572  1.00  0.00    -0.213 NA
ATOM     18  C   UNL     1      12.456  56.544  11.650  1.00  0.00     0.117 A 
ATOM     19  N   UNL     1      13.726  56.213  12.070  1.00  0.00    -0.221 NA
BRANCH  15  20
ATOM     20  C   UNL     1      12.646  60.328  12.271  1.00  0.00     0.019 A 
ATOM     21  C   UNL     1      11.113  62.313  11.999  1.00  0.00     0.021 A 
ATOM     22  C   UNL     1      11.361  60.895  11.880  1.00  0.00     0.013 A 
ATOM     23  C   UNL     1      12.167  63.150  12.509  1.00  0.00     0.111 A 
ATOM     24  N   UNL     1      13.399  62.593  12.883  1.00  0.00    -0.264 NA
ATOM     25  C   UNL     1      13.666  61.231  12.782  1.00  0.00     0.121 A 
ENDBRANCH  15  20
ENDBRANCH  12  14
ENDBRANCH   6  12
ENDBRANCH   1   5
BRANCH   2  26
ATOM     26  C   UNL     1      15.812  50.844  16.530  1.00  0.00     0.040 A 
ATOM     27  C   UNL     1      17.061  50.094  16.685  1.00  0.00     0.014 A 
ATOM     28  C   UNL     1      14.615  50.396  17.210  1.00  0.00     0.014 A 
ATOM     29  C   UNL     1      17.097  48.910  17.507  1.00  0.00     0.006 A 
ATOM     30  C   UNL     1      14.654  49.236  18.015  1.00  0.00     0.006 A 
ATOM     31  C   UNL     1      15.878  48.470  18.182  1.00  0.00    -0.034 A 
BRANCH  31  32
ATOM     32  C   UNL     1      15.819  47.207  19.061  1.00  0.00     0.120 C 
BRANCH  32  33
ATOM     33  N   UNL     1      17.032  46.878  19.867  1.00  0.00    -0.288 NA
ATOM     34  C   UNL     1      17.328  47.979  20.855  1.00  0.00     0.146 C 
ATOM     35  C   UNL     1      16.891  45.539  20.598  1.00  0.00     0.146 C 
ATOM     36  C   UNL     1      18.601  47.665  21.691  1.00  0.00     0.277 C 
ATOM     37  C   UNL     1      18.178  45.200  21.418  1.00  0.00     0.277 C 
ATOM     38  N   UNL     1      18.461  46.330  22.409  1.00  0.00    -0.335 N 
ATOM     39  C   UNL     1      19.637  45.987  23.221  1.00  0.00     0.332 C 
ATOM     40  H   UNL     1      17.662  46.439  23.050  1.00  0.00     0.347 HD
ENDBRANCH  32  33
ENDBRANCH  31  32
ENDBRANCH   2  26
TORSDOF 7
ENDMDL
MODEL 3
REMARK VINA RESULT:   -11.273      3.035     12.416
REMARK INTER + INTRA:         -16.329
REMARK INTER:                 -15.361
REMARK INTRA:                  -0.968
REMARK UNBOUND:                -0.442
REMARK SMILES Cc1ccc(NC(=O)c2ccc(CN3CC[NH+](C)CC3)cc2)cc1Nc1nccc(-c2cccnc2)n1
REMARK SMILES IDX 6 1 7 2 8 3 5 5 24 6 2 7 23 8 3 9 4 10 1 11 25 12 26 14
REMARK SMILES IDX 30 15 29 16 37 17 28 18 27 19 31 20 33 21 32 22 34 23 35 24
REMARK SMILES IDX 36 25 9 26 10 27 22 28 11 29 21 30 12 31 13 32 14 33 15 34
REMARK SMILES IDX 20 35 16 36 19 37 17 38 18 39
REMARK H PARENT 6 4 25 13 17 40
ROOT
ATOM      1  N   UNL     1      16.128  51.972  15.782  1.00  0.00    -0.322 N 
ATOM      2  C   UNL     1      15.638  52.206  14.508  1.00  0.00     0.255 C 
ATOM      3  O   UNL     1      15.181  51.342  13.774  1.00  0.00    -0.269 OA
ATOM      4  H   UNL     1      16.660  52.743  16.211  1.00  0.00     0.170 HD
ENDROOT
BRANCH   1   5
ATOM      5  C   UNL     1      15.985  50.781  16.582  1.00  0.00     0.043 A 
ATOM      6  C   UNL     1      16.866  48.681  17.620  1.00  0.00     0.046 A 
ATOM      7  C   UNL     1      15.550  48.401  18.207  1.00  0.00    -0.027 A 
ATOM      8  C   UNL     1      17.067  49.842  16.830  1.00  0.00     0.052 A 
ATOM      9  C   UNL     1      14.486  49.333  17.961  1.00  0.00     0.008 A 
ATOM     10  C   UNL     1      14.709  50.508  17.157  1.00  0.00     0.026 A 
ATOM     11  C   UNL     1      15.252  47.154  19.072  1.00  0.00     0.046 C 
BRANCH   6  12
ATOM     12  N   UNL     1      17.940  47.813  17.825  1.00  0.00    -0.324 N 
ATOM     13  H   UNL     1      17.994  46.933  17.292  1.00  0.00     0.170 HD
BRANCH  12  14
ATOM     14  C   UNL     1      18.936  48.122  18.740  1.00  0.00     0.227 A 
ATOM     15  C   UNL     1      20.958  49.299  19.186  1.00  0.00     0.077 A 
ATOM     16  C   UNL     1      20.993  48.780  20.523  1.00  0.00     0.049 A 
ATOM     17  N   UNL     1      19.925  48.950  18.345  1.00  0.00    -0.213 NA
ATOM     18  C   UNL     1      19.944  47.917  20.912  1.00  0.00     0.117 A 
ATOM     19  N   UNL     1      18.940  47.602  20.021  1.00  0.00    -0.221 NA
BRANCH  15  20
ATOM     20  C   UNL     1      21.996  50.221  18.626  1.00  0.00     0.019 A 
ATOM     21  C   UNL     1      24.221  50.679  17.529  1.00  0.00     0.021 A 
ATOM     22  C   UNL     1      23.252  49.747  18.057  1.00  0.00     0.013 A 
ATOM     23  C   UNL     1      23.916  52.085  17.582  1.00  0.00     0.111 A 
ATOM     24  N   UNL     1      22.703  52.529  18.131  1.00  0.00    -0.264 NA
ATOM     25  C   UNL     1      21.751  51.655  18.645  1.00  0.00     0.121 A 
ENDBRANCH  15  20
ENDBRANCH  12  14
ENDBRANCH   6  12
ENDBRANCH   1   5
BRANCH   2  26
ATOM     26  C   UNL     1      15.674  53.598  13.964  1.00  0.00     0.040 A 
ATOM     27  C   UNL     1      16.944  54.296  13.748  1.00  0.00     0.014 A 
ATOM     28  C   UNL     1      14.426  54.264  13.660  1.00  0.00     0.014 A 
ATOM     29  C   UNL     1      16.949  55.645  13.239  1.00  0.00     0.006 A 
ATOM     30  C   UNL     1      14.435  55.585  13.160  1.00  0.00     0.006 A 
ATOM     31  C   UNL     1      15.680  56.303  12.941  1.00  0.00    -0.034 A 
BRANCH  31  32
ATOM     32  C   UNL     1      15.590  57.748  12.415  1.00  0.00     0.120 C 
BRANCH  32  33
ATOM     33  N   UNL     1      14.317  58.489  12.664  1.00  0.00    -0.288 NA
ATOM     34  C   UNL     1      14.604  59.878  13.179  1.00  0.00     0.146 C 
ATOM     35  C   UNL     1      13.441  58.563  11.410  1.00  0.00     0.146 C 
ATOM     36  C   UNL     1      13.291  60.659  13.465  1.00  0.00     0.277 C 
ATOM     37  C   UNL     1      12.104  59.321  11.695  1.00  0.00     0.277 C 
ATOM     38  N   UNL     1      12.418  60.723  12.220  1.00  0.00    -0.335 N 
ATOM     39  C   UNL     1      11.163  61.460  12.433  1.00  0.00     0.332 C 
ATOM     40  H   UNL     1      12.966  61.242  11.519  1.00  0.00     0.347 HD
ENDBRANCH  32  33
ENDBRANCH  31  32
ENDBRANCH   2  26
TORSDOF 7
ENDMDL
MODEL 4
REMARK VINA RESULT:   -11.012      3.937     12.286
REMARK INTER + INTRA:         -15.960
REMARK INTER:                 -15.083
REMARK INTRA:                  -0.877
REMARK UNBOUND:                -0.442
REMARK SMILES Cc1ccc(NC(=O)c2ccc(CN3CC[NH+](C)CC3)cc2)cc1Nc1nccc(-c2cccnc2)n1
REMARK SMILES IDX 6 1 7 2 8 3 5 5 24 6 2 7 23 8 3 9 4 10 1 11 25 12 26 14
REMARK SMILES IDX 30 15 29 16 37 17 28 18 27 19 31 20 33 21 32 22 34 23 35 24
REMARK SMILES IDX 36 25 9 26 10 27 22 28 11 29 21 30 12 31 13 32 14 33 15 34
REMARK SMILES IDX 20 35 16 36 19 37 17 38 18 39
REMARK H PARENT 6 4 25 13 17 40
ROOT
ATOM      1  N   UNL     1      16.815  50.498  16.161  1.00  0.00    -0.322 N 
ATOM      2  C   UNL     1      15.694  51.299  16.018  1.00  0.00     0.255 C 
ATOM      3  O   UNL     1      14.653  51.149  16.641  1.00  0.00    -0.269 OA
ATOM      4  H   UNL     1      17.544  50.609  15.442  1.00  0.00     0.170 HD
ENDROOT
BRANCH   1   5
ATOM      5  C   UNL     1      17.086  49.529  17.194  1.00  0.00     0.043 A 
ATOM      6  C   UNL     1      18.482  48.583  19.042  1.00  0.00     0.046 A 
ATOM      7  C   UNL     1      17.517  47.493  19.233  1.00  0.00    -0.027 A 
ATOM      8  C   UNL     1      18.263  49.569  18.047  1.00  0.00     0.052 A 
ATOM      9  C   UNL     1      16.357  47.460  18.390  1.00  0.00     0.008 A 
ATOM     10  C   UNL     1      16.150  48.471  17.384  1.00  0.00     0.026 A 
ATOM     11  C   UNL     1      17.691  46.378  20.291  1.00  0.00     0.046 C 
BRANCH   6  12
ATOM     12  N   UNL     1      19.630  48.669  19.834  1.00  0.00    -0.324 N 
ATOM     13  H   UNL     1      19.542  48.886  20.837  1.00  0.00     0.170 HD
BRANCH  12  14
ATOM     14  C   UNL     1      20.886  48.469  19.284  1.00  0.00     0.227 A 
ATOM     15  C   UNL     1      22.867  49.446  18.390  1.00  0.00     0.077 A 
ATOM     16  C   UNL     1      23.428  48.147  18.151  1.00  0.00     0.049 A 
ATOM     17  N   UNL     1      21.614  49.555  18.951  1.00  0.00    -0.213 NA
ATOM     18  C   UNL     1      22.646  47.026  18.509  1.00  0.00     0.117 A 
ATOM     19  N   UNL     1      21.397  47.203  19.065  1.00  0.00    -0.221 NA
BRANCH  15  20
ATOM     20  C   UNL     1      23.569  50.726  18.062  1.00  0.00     0.019 A 
ATOM     21  C   UNL     1      25.210  52.097  16.723  1.00  0.00     0.021 A 
ATOM     22  C   UNL     1      24.561  50.836  16.999  1.00  0.00     0.013 A 
ATOM     23  C   UNL     1      24.853  53.238  17.524  1.00  0.00     0.111 A 
ATOM     24  N   UNL     1      23.896  53.121  18.543  1.00  0.00    -0.264 NA
ATOM     25  C   UNL     1      23.254  51.921  18.831  1.00  0.00     0.121 A 
ENDBRANCH  15  20
ENDBRANCH  12  14
ENDBRANCH   6  12
ENDBRANCH   1   5
BRANCH   2  26
ATOM     26  C   UNL     1      15.728  52.419  15.029  1.00  0.00     0.040 A 
ATOM     27  C   UNL     1      16.694  52.431  13.927  1.00  0.00     0.014 A 
ATOM     28  C   UNL     1      14.793  53.513  15.177  1.00  0.00     0.014 A 
ATOM     29  C   UNL     1      16.717  53.532  12.997  1.00  0.00     0.006 A 
ATOM     30  C   UNL     1      14.817  54.590  14.263  1.00  0.00     0.006 A 
ATOM     31  C   UNL     1      15.768  54.630  13.164  1.00  0.00    -0.034 A 
BRANCH  31  32
ATOM     32  C   UNL     1      15.735  55.856  12.232  1.00  0.00     0.120 C 
BRANCH  32  33
ATOM     33  N   UNL     1      14.965  57.048  12.697  1.00  0.00    -0.288 NA
ATOM     34  C   UNL     1      15.862  58.259  12.780  1.00  0.00     0.146 C 
ATOM     35  C   UNL     1      13.764  57.344  11.795  1.00  0.00     0.146 C 
ATOM     36  C   UNL     1      15.084  59.507  13.283  1.00  0.00     0.277 C 
ATOM     37  C   UNL     1      12.957  58.581  12.309  1.00  0.00     0.277 C 
ATOM     38  N   UNL     1      13.885  59.794  12.390  1.00  0.00    -0.335 N 
ATOM     39  C   UNL     1      13.117  60.972  12.817  1.00  0.00     0.332 C 
ATOM     40  H   UNL     1      14.272  59.998  11.457  1.00  0.00     0.347 HD
ENDBRANCH  32  33
ENDBRANCH  31  32
ENDBRANCH   2  26
TORSDOF 7
ENDMDL
MODEL 5
REMARK VINA RESULT:   -10.633      2.567     12.612
REMARK INTER + INTRA:         -15.426
REMARK INTER:                 -14.648
REMARK INTRA:                  -0.778
REMARK UNBOUND:                -0.442
REMARK SMILES Cc1ccc(NC(=O)c2ccc(CN3CC[NH+](C)CC3)cc2)cc1Nc1nccc(-c2cccnc2)n1
REMARK SMILES IDX 6 1 7 2 8 3 5 5 24 6 2 7 23 8 3 9 4 10 1 11 25 12 26 14
REMARK SMILES IDX 30 15 29 16 37 17 28 18 27 19 31 20 33 21 32 22 34 23 35 24
REMARK SMILES IDX 36 25 9 26 10 27 22 28 11 29 21 30 12 31 13 32 14 33 15 34
REMARK SMILES IDX 20 35 16 36 19 37 17 38 18 39
REMARK H PARENT 6 4 25 13 17 40
ROOT
ATOM      1  N   UNL     1      14.829  51.304  16.551  1.00  0.00    -0.322 N 
ATOM      2  C   UNL     1      15.914  51.614  15.748  1.00  0.00     0.255 C 
ATOM      3  O   UNL     1      16.992  51.039  15.790  1.00  0.00    -0.269 OA
ATOM      4  H   UNL     1      14.058  51.987  16.553  1.00  0.00     0.170 HD
ENDROOT
BRANCH   1   5
ATOM      5  C   UNL     1      14.647  50.142  17.386  1.00  0.00     0.043 A 
ATOM      6  C   UNL     1      15.448  48.026  18.455  1.00  0.00     0.046 A 
ATOM      7  C   UNL     1      14.136  47.829  19.083  1.00  0.00    -0.027 A 
ATOM      8  C   UNL     1      15.687  49.155  17.630  1.00  0.00     0.052 A 
ATOM      9  C   UNL     1      13.115  48.808  18.841  1.00  0.00     0.008 A 
ATOM     10  C   UNL     1      13.376  49.950  18.001  1.00  0.00     0.026 A 
ATOM     11  C   UNL     1      13.799  46.621  19.988  1.00  0.00     0.046 C 
BRANCH   6  12
ATOM     12  N   UNL     1      16.482  47.109  18.655  1.00  0.00    -0.324 N 
ATOM     13  H   UNL     1      16.493  46.228  18.121  1.00  0.00     0.170 HD
BRANCH  12  14
ATOM     14  C   UNL     1      17.495  47.371  19.565  1.00  0.00     0.227 A 
ATOM     15  C   UNL     1      19.755  48.034  19.918  1.00  0.00     0.077 A 
ATOM     16  C   UNL     1      19.597  47.902  21.338  1.00  0.00     0.049 A 
ATOM     17  N   UNL     1      18.693  47.764  19.085  1.00  0.00    -0.213 NA
ATOM     18  C   UNL     1      18.333  47.490  21.815  1.00  0.00     0.117 A 
ATOM     19  N   UNL     1      17.309  47.232  20.928  1.00  0.00    -0.221 NA
BRANCH  15  20
ATOM     20  C   UNL     1      21.033  48.457  19.262  1.00  0.00     0.019 A 
ATOM     21  C   UNL     1      23.294  47.976  18.252  1.00  0.00     0.021 A 
ATOM     22  C   UNL     1      22.079  47.515  18.884  1.00  0.00     0.013 A 
ATOM     23  C   UNL     1      23.443  49.386  18.008  1.00  0.00     0.111 A 
ATOM     24  N   UNL     1      22.428  50.283  18.374  1.00  0.00    -0.264 NA
ATOM     25  C   UNL     1      21.248  49.869  18.983  1.00  0.00     0.121 A 
ENDBRANCH  15  20
ENDBRANCH  12  14
ENDBRANCH   6  12
ENDBRANCH   1   5
BRANCH   2  26
ATOM     26  C   UNL     1      15.789  52.733  14.765  1.00  0.00     0.040 A 
ATOM     27  C   UNL     1      16.788  52.936  13.713  1.00  0.00     0.014 A 
ATOM     28  C   UNL     1      14.662  53.635  14.871  1.00  0.00     0.014 A 
ATOM     29  C   UNL     1      16.653  54.034  12.789  1.00  0.00     0.006 A 
ATOM     30  C   UNL     1      14.532  54.710  13.963  1.00  0.00     0.006 A 
ATOM     31  C   UNL     1      15.511  54.937  12.913  1.00  0.00    -0.034 A 
BRANCH  31  32
ATOM     32  C   UNL     1      15.297  56.147  11.984  1.00  0.00     0.120 C 
BRANCH  32  33
ATOM     33  N   UNL     1      14.598  57.335  12.559  1.00  0.00    -0.288 NA
ATOM     34  C   UNL     1      15.559  58.486  12.728  1.00  0.00     0.146 C 
ATOM     35  C   UNL     1      13.404  57.768  11.703  1.00  0.00     0.146 C 
ATOM     36  C   UNL     1      14.855  59.727  13.345  1.00  0.00     0.277 C 
ATOM     37  C   UNL     1      12.670  58.998  12.331  1.00  0.00     0.277 C 
ATOM     38  N   UNL     1      13.663  60.150  12.498  1.00  0.00    -0.335 N 
ATOM     39  C   UNL     1      12.964  61.327  13.034  1.00  0.00     0.332 C 
ATOM     40  H   UNL     1      14.050  60.411  11.579  1.00  0.00     0.347 HD
ENDBRANCH  32  33
ENDBRANCH  31  32
ENDBRANCH   2  26
TORSDOF 7
ENDMDL
