MODEL 1
REMARK VINA RESULT:    -6.059      0.000      0.000
REMARK INTER + INTRA:          -7.273
REMARK INTER:                  -7.122
REMARK INTRA:                  -0.152
REMARK UNBOUND:                -0.152
REMARK SMILES CC1CCCC(C)C1OC(F)(F)C(=O)[O-]
REMARK SMILES IDX 11 1 10 2 12 3 9 4 8 5 6 6 2 7 5 8 3 9 4 10 7 11 1 12 13 13
REMARK SMILES IDX 14 14 15 15
REMARK H PARENT
ROOT
ATOM      1  F   UNL     1     137.924 130.341 126.091  1.00  0.00    -0.169 F 
ATOM      2  C   UNL     1     137.843 131.577 125.442  1.00  0.00     0.397 C 
ATOM      3  F   UNL     1     137.255 132.499 126.289  1.00  0.00    -0.169 F 
ENDROOT
BRANCH   2   4
ATOM      4  O   UNL     1     137.129 131.446 124.239  1.00  0.00    -0.312 OA
BRANCH   4   5
ATOM      5  C   UNL     1     136.412 132.606 123.951  1.00  0.00     0.131 C 
ATOM      6  C   UNL     1     136.525 132.890 122.490  1.00  0.00     0.015 C 
ATOM      7  C   UNL     1     134.992 132.525 124.461  1.00  0.00     0.015 C 
ATOM      8  C   UNL     1     135.418 133.797 122.007  1.00  0.00     0.006 C 
ATOM      9  C   UNL     1     134.301 133.824 124.207  1.00  0.00     0.006 C 
ATOM     10  C   UNL     1     135.005 134.656 123.178  1.00  0.00     0.001 C 
ATOM     11  C   UNL     1     136.652 131.641 121.647  1.00  0.00     0.010 C 
ATOM     12  C   UNL     1     134.235 131.355 123.934  1.00  0.00     0.010 C 
ENDBRANCH   4   5
ENDBRANCH   2   4
BRANCH   2  13
ATOM     13  C   UNL     1     139.220 131.996 125.075  1.00  0.00     0.143 C 
ATOM     14  O   UNL     1     140.165 131.367 125.663  1.00  0.00    -0.542 OA
ATOM     15  O   UNL     1     139.491 133.003 124.158  1.00  0.00    -0.542 OA
ENDBRANCH   2  13
TORSDOF 3
ENDMDL
MODEL 2
REMARK VINA RESULT:    -5.004      1.170      1.541
REMARK INTER + INTRA:          -6.033
REMARK INTER:                  -5.476
REMARK INTRA:                  -0.558
REMARK UNBOUND:                -0.152
REMARK SMILES CC1CCCC(C)C1OC(F)(F)C(=O)[O-]
REMARK SMILES IDX 11 1 10 2 12 3 9 4 8 5 6 6 2 7 5 8 3 9 4 10 7 11 1 12 13 13
REMARK SMILES IDX 14 14 15 15
REMARK H PARENT
ROOT
ATOM      1  F   UNL     1     138.246 133.372 125.672  1.00  0.00    -0.169 F 
ATOM      2  C   UNL     1     138.522 132.318 124.795  1.00  0.00     0.397 C 
ATOM      3  F   UNL     1     139.425 132.745 123.839  1.00  0.00    -0.169 F 
ENDROOT
BRANCH   2   4
ATOM      4  O   UNL     1     137.333 131.847 124.215  1.00  0.00    -0.312 OA
BRANCH   4   5
ATOM      5  C   UNL     1     136.485 132.901 123.879  1.00  0.00     0.131 C 
ATOM      6  C   UNL     1     136.477 133.057 122.394  1.00  0.00     0.015 C 
ATOM      7  C   UNL     1     135.115 132.732 124.494  1.00  0.00     0.015 C 
ATOM      8  C   UNL     1     135.256 133.805 121.915  1.00  0.00     0.006 C 
ATOM      9  C   UNL     1     134.281 133.930 124.178  1.00  0.00     0.006 C 
ATOM     10  C   UNL     1     134.831 134.726 123.034  1.00  0.00     0.001 C 
ATOM     11  C   UNL     1     136.677 131.754 121.656  1.00  0.00     0.010 C 
ATOM     12  C   UNL     1     134.449 131.451 124.125  1.00  0.00     0.010 C 
ENDBRANCH   4   5
ENDBRANCH   2   4
BRANCH   2  13
ATOM     13  C   UNL     1     139.081 131.193 125.589  1.00  0.00     0.143 C 
ATOM     14  O   UNL     1     138.223 130.453 126.180  1.00  0.00    -0.542 OA
ATOM     15  O   UNL     1     140.443 130.942 125.699  1.00  0.00    -0.542 OA
ENDBRANCH   2  13
TORSDOF 3
ENDMDL
