REMARK SMILES O=C([O-])[C@@H]1CCCC[NH2+]1
REMARK SMILES IDX 6 1 7 2 8 3 9 4 4 5 5 6 2 9 1 10 3 11
REMARK H PARENT 9 7 9 8
ROOT
ATOM      1  C   UNL     1      -1.268  -0.987   0.304  1.00  0.00     0.012 C 
ATOM      2  C   UNL     1      -1.725   0.312  -0.279  1.00  0.00     0.062 C 
ATOM      3  C   UNL     1      -0.724   1.436   0.015  1.00  0.00     0.261 C 
ATOM      4  N   UNL     1       0.520   0.969  -0.535  1.00  0.00    -0.339 N 
ATOM      5  C   UNL     1       0.983  -0.085   0.353  1.00  0.00     0.229 C 
ATOM      6  C   UNL     1       0.182  -1.298   0.024  1.00  0.00     0.072 C 
ATOM      7  H   UNL     1       0.282   0.548  -1.473  1.00  0.00     0.346 HD
ATOM      8  H   UNL     1       1.225   1.710  -0.720  1.00  0.00     0.346 HD
ENDROOT
BRANCH   5   9
ATOM      9  C   UNL     1       2.446  -0.283   0.254  1.00  0.00     0.099 C 
ATOM     10  O   UNL     1       3.202   0.574   0.781  1.00  0.00    -0.544 OA
ATOM     11  O   UNL     1       2.989  -1.385  -0.401  1.00  0.00    -0.544 OA
ENDBRANCH   5   9
TORSDOF 1
