REMARK SMILES NCC(=O)O
REMARK SMILES IDX 3 1 4 2 2 3 1 4 5 7
REMARK H PARENT 1 5 1 6 5 8
ROOT
ATOM      1  C   UNL     1       0.784  -0.097   0.066  1.00  0.00     0.317 C 
ATOM      2  O   UNL     1       0.902   0.327   1.232  1.00  0.00    -0.251 OA
ENDROOT
BRANCH   1   3
ATOM      3  C   UNL     1      -0.587  -0.152  -0.519  1.00  0.00     0.201 C 
BRANCH   3   4
ATOM      4  N   UNL     1      -1.506   0.339   0.491  1.00  0.00    -0.321 NA
ATOM      5  H   UNL     1      -1.117   1.227   0.914  1.00  0.00     0.119 HD
ATOM      6  H   UNL     1      -1.656  -0.382   1.220  1.00  0.00     0.119 HD
ENDBRANCH   3   4
ENDBRANCH   1   3
BRANCH   1   7
ATOM      7  O   UNL     1       1.905  -0.509  -0.670  1.00  0.00    -0.480 OA
ATOM      8  H   UNL     1       2.761   0.051  -0.530  1.00  0.00     0.296 HD
ENDBRANCH   1   7
TORSDOF 3
