REMARK SMILES CN1CCC[C@H]1C(=O)O
REMARK SMILES IDX 7 1 8 2 6 3 2 4 3 5 4 6 5 7 1 8 9 9
REMARK H PARENT 9 10
ROOT
ATOM      1  C   UNL     1       1.773   0.017   0.762  1.00  0.00     0.320 C 
ATOM      2  O   UNL     1       2.513  -0.662   1.535  1.00  0.00    -0.251 OA
ENDROOT
BRANCH   1   3
ATOM      3  C   UNL     1       0.309  -0.202   0.719  1.00  0.00     0.167 C 
ATOM      4  N   UNL     1      -0.288   0.700  -0.243  1.00  0.00    -0.294 NA
ATOM      5  C   UNL     1      -1.453  -0.079  -0.656  1.00  0.00     0.085 C 
ATOM      6  C   UNL     1      -0.712  -1.306  -1.147  1.00  0.00     0.018 C 
ATOM      7  C   UNL     1       0.108  -1.596   0.111  1.00  0.00     0.032 C 
ATOM      8  C   UNL     1      -0.651   1.967   0.323  1.00  0.00     0.106 C 
ENDBRANCH   1   3
BRANCH   1   9
ATOM      9  O   UNL     1       2.424   0.961  -0.025  1.00  0.00    -0.480 OA
ATOM     10  H   UNL     1       3.318   0.746  -0.488  1.00  0.00     0.296 HD
ENDBRANCH   1   9
TORSDOF 2
