REMARK SMILES CSCC[C@H](N)C(=O)O
REMARK SMILES IDX 4 1 3 2 2 3 1 4 5 5 7 6 8 7 9 8 6 10
REMARK H PARENT 9 9 6 11 6 12
ROOT
ATOM      1  C   UNL     1      -0.006  -0.735   0.075  1.00  0.00     0.041 C 
ENDROOT
BRANCH   1   2
ATOM      2  C   UNL     1       0.818  -0.005  -0.942  1.00  0.00     0.071 C 
BRANCH   2   3
ATOM      3  S   UNL     1       2.590  -0.277  -0.701  1.00  0.00    -0.165 SA
ATOM      4  C   UNL     1       3.102   0.469   0.856  1.00  0.00     0.085 C 
ENDBRANCH   2   3
ENDBRANCH   1   2
BRANCH   1   5
ATOM      5  C   UNL     1      -1.484  -0.557  -0.068  1.00  0.00     0.162 C 
BRANCH   5   6
ATOM      6  C   UNL     1      -1.927   0.834   0.044  1.00  0.00     0.320 C 
ATOM      7  O   UNL     1      -2.709   1.282  -0.849  1.00  0.00    -0.251 OA
BRANCH   6   8
ATOM      8  O   UNL     1      -1.559   1.707   1.053  1.00  0.00    -0.480 OA
ATOM      9  H   UNL     1      -2.273   2.294   1.495  1.00  0.00     0.296 HD
ENDBRANCH   6   8
ENDBRANCH   5   6
BRANCH   5  10
ATOM     10  N   UNL     1      -2.044  -1.154  -1.247  1.00  0.00    -0.318 NA
ATOM     11  H   UNL     1      -2.642  -1.990  -1.068  1.00  0.00     0.119 HD
ATOM     12  H   UNL     1      -1.412  -1.245  -2.047  1.00  0.00     0.119 HD
ENDBRANCH   5  10
ENDBRANCH   1   5
TORSDOF 6
