REMARK SMILES NC(=O)CC[C@H](N)C(=O)O
REMARK SMILES IDX 5 1 4 2 2 3 3 4 1 5 6 8 8 9 9 10 10 11 7 13
REMARK H PARENT 1 6 1 7 10 12 7 14 7 15
ROOT
ATOM      1  C   UNL     1      -0.205  -0.549   0.583  1.00  0.00     0.040 C 
ENDROOT
BRANCH   1   2
ATOM      2  C   UNL     1       0.842   0.060  -0.250  1.00  0.00     0.102 C 
BRANCH   2   3
ATOM      3  C   UNL     1       2.183  -0.174   0.365  1.00  0.00     0.217 C 
ATOM      4  O   UNL     1       2.335  -0.808   1.444  1.00  0.00    -0.275 OA
ATOM      5  N   UNL     1       3.311   0.366  -0.340  1.00  0.00    -0.370 N 
ATOM      6  H   UNL     1       3.763   1.226   0.087  1.00  0.00     0.159 HD
ATOM      7  H   UNL     1       3.674  -0.057  -1.225  1.00  0.00     0.159 HD
ENDBRANCH   2   3
ENDBRANCH   1   2
BRANCH   1   8
ATOM      8  C   UNL     1      -1.607  -0.421   0.134  1.00  0.00     0.162 C 
BRANCH   8   9
ATOM      9  C   UNL     1      -1.890   1.038   0.071  1.00  0.00     0.320 C 
ATOM     10  O   UNL     1      -2.173   1.638  -1.001  1.00  0.00    -0.251 OA
BRANCH   9  11
ATOM     11  O   UNL     1      -1.838   1.760   1.256  1.00  0.00    -0.480 OA
ATOM     12  H   UNL     1      -1.593   2.741   1.257  1.00  0.00     0.296 HD
ENDBRANCH   9  11
ENDBRANCH   8   9
BRANCH   8  13
ATOM     13  N   UNL     1      -1.697  -1.039  -1.161  1.00  0.00    -0.318 NA
ATOM     14  H   UNL     1      -2.655  -0.831  -1.551  1.00  0.00     0.119 HD
ATOM     15  H   UNL     1      -1.683  -2.071  -1.000  1.00  0.00     0.119 HD
ENDBRANCH   8  13
ENDBRANCH   1   8
TORSDOF 6
