REMARK SMILES O=C(O)[C@@H]1CCCN1
REMARK SMILES IDX 2 1 1 2 4 3 6 4 5 5 7 6 8 7 3 9
REMARK H PARENT 8 8 3 10
ROOT
ATOM      1  C   UNL     1       1.536  -0.110  -0.168  1.00  0.00     0.320 C 
ATOM      2  O   UNL     1       1.773  -0.545   0.998  1.00  0.00    -0.251 OA
ENDROOT
BRANCH   1   3
ATOM      3  C   UNL     1       0.293  -0.566  -0.856  1.00  0.00     0.164 C 
ATOM      4  C   UNL     1      -0.944   0.793   0.534  1.00  0.00     0.017 C 
ATOM      5  C   UNL     1      -0.645   0.622  -0.944  1.00  0.00     0.032 C 
ATOM      6  C   UNL     1      -1.185  -0.641   0.944  1.00  0.00     0.082 C 
ATOM      7  N   UNL     1      -0.403  -1.470   0.042  1.00  0.00    -0.304 NA
ATOM      8  H   UNL     1       0.300  -2.020   0.584  1.00  0.00     0.123 HD
ENDBRANCH   1   3
BRANCH   1   9
ATOM      9  O   UNL     1       2.420   0.776  -0.789  1.00  0.00    -0.480 OA
ATOM     10  H   UNL     1       2.899   1.450  -0.215  1.00  0.00     0.296 HD
ENDBRANCH   1   9
TORSDOF 2
